* Extracted by KLayout with GF180MCU LVS runset on : 17/04/2026 01:16

.SUBCKT PC vss RSTn Qb15 VDD CLK D15 Q15 D14 Q14 Qb14 D13 Q13 Qb13 D12 Q12 Qb12
+ D11 Q11 Qb11 D10 Q10 Qb10 D9 Q9 Qb9 Q8 Qb8 D8 Qb7 D7 Q7 Q6 Qb6 D6 Qb5 D5 Q5
+ Q4 Qb4 D4 Qb3 D3 Q3 Q2 Qb2 D2 Q1 Qb1 D1 Q0 Qb0 D0
M$1 \$9 \$19 VDD VDD pfet_03v3 L=0.28U W=1U AS=0.65P AD=0.65P PS=3.3U PD=3.3U
M$2 Qb15 \$9 VDD VDD pfet_03v3 L=0.28U W=1U AS=0.65P AD=0.65P PS=3.3U PD=3.3U
M$3 \$2 CLK VDD VDD pfet_03v3 L=0.28U W=1U AS=0.65P AD=0.65P PS=3.3U PD=3.3U
M$4 \$4 \$2 VDD VDD pfet_03v3 L=0.28U W=1U AS=0.65P AD=0.65P PS=3.3U PD=3.3U
M$5 \$37 \$4 VDD VDD pfet_03v3 L=0.28U W=1U AS=0.65P AD=0.65P PS=3.3U PD=3.3U
M$6 \$19 RSTn VDD VDD pfet_03v3 L=0.28U W=1U AS=0.65P AD=0.65P PS=3.3U PD=3.3U
M$7 \$19 \$7 VDD VDD pfet_03v3 L=0.28U W=1U AS=0.65P AD=0.65P PS=3.3U PD=3.3U
M$8 \$38 \$19 \$7 VDD pfet_03v3 L=0.28U W=1U AS=0.65P AD=0.65P PS=3.3U PD=3.3U
M$9 VDD \$4 \$38 VDD pfet_03v3 L=0.28U W=1U AS=0.65P AD=0.65P PS=3.3U PD=3.3U
M$10 Q15 \$19 VDD VDD pfet_03v3 L=0.28U W=1U AS=0.65P AD=0.65P PS=3.3U PD=3.3U
M$11 \$55 CLK VDD VDD pfet_03v3 L=0.28U W=1U AS=0.65P AD=0.65P PS=3.3U PD=3.3U
M$12 \$57 \$55 VDD VDD pfet_03v3 L=0.28U W=1U AS=0.65P AD=0.65P PS=3.3U PD=3.3U
M$13 \$87 \$57 VDD VDD pfet_03v3 L=0.28U W=1U AS=0.65P AD=0.65P PS=3.3U PD=3.3U
M$14 \$14 D15 \$37 VDD pfet_03v3 L=0.28U W=1U AS=0.65P AD=0.65P PS=3.3U PD=3.3U
M$15 \$6 \$2 \$14 VDD pfet_03v3 L=0.28U W=1U AS=0.65P AD=0.65P PS=3.3U PD=3.3U
M$16 VDD RSTn \$6 VDD pfet_03v3 L=0.28U W=1U AS=0.65P AD=0.65P PS=3.3U PD=3.3U
M$17 \$6 \$16 VDD VDD pfet_03v3 L=0.28U W=1U AS=0.65P AD=0.65P PS=3.3U PD=3.3U
M$18 VDD \$14 \$16 VDD pfet_03v3 L=0.28U W=1U AS=0.65P AD=0.65P PS=3.3U PD=3.3U
M$19 \$7 \$2 \$16 VDD pfet_03v3 L=0.28U W=1U AS=0.65P AD=0.65P PS=3.3U PD=3.3U
M$20 \$65 RSTn VDD VDD pfet_03v3 L=0.28U W=1U AS=0.65P AD=0.65P PS=3.3U PD=3.3U
M$21 \$65 \$56 VDD VDD pfet_03v3 L=0.28U W=1U AS=0.65P AD=0.65P PS=3.3U PD=3.3U
M$22 \$88 \$65 \$56 VDD pfet_03v3 L=0.28U W=1U AS=0.65P AD=0.65P PS=3.3U PD=3.3U
M$23 VDD \$57 \$88 VDD pfet_03v3 L=0.28U W=1U AS=0.65P AD=0.65P PS=3.3U PD=3.3U
M$24 Q14 \$65 VDD VDD pfet_03v3 L=0.28U W=1U AS=0.65P AD=0.65P PS=3.3U PD=3.3U
M$25 \$68 \$65 VDD VDD pfet_03v3 L=0.28U W=1U AS=0.65P AD=0.65P PS=3.3U PD=3.3U
M$26 Qb14 \$68 VDD VDD pfet_03v3 L=0.28U W=1U AS=0.65P AD=0.65P PS=3.3U PD=3.3U
M$27 \$105 CLK VDD VDD pfet_03v3 L=0.28U W=1U AS=0.65P AD=0.65P PS=3.3U PD=3.3U
M$28 \$108 \$105 VDD VDD pfet_03v3 L=0.28U W=1U AS=0.65P AD=0.65P PS=3.3U
+ PD=3.3U
M$29 \$138 \$108 VDD VDD pfet_03v3 L=0.28U W=1U AS=0.65P AD=0.65P PS=3.3U
+ PD=3.3U
M$30 \$60 D14 \$87 VDD pfet_03v3 L=0.28U W=1U AS=0.65P AD=0.65P PS=3.3U PD=3.3U
M$31 \$61 \$55 \$60 VDD pfet_03v3 L=0.28U W=1U AS=0.65P AD=0.65P PS=3.3U PD=3.3U
M$32 VDD RSTn \$61 VDD pfet_03v3 L=0.28U W=1U AS=0.65P AD=0.65P PS=3.3U PD=3.3U
M$33 \$61 \$63 VDD VDD pfet_03v3 L=0.28U W=1U AS=0.65P AD=0.65P PS=3.3U PD=3.3U
M$34 VDD \$60 \$63 VDD pfet_03v3 L=0.28U W=1U AS=0.65P AD=0.65P PS=3.3U PD=3.3U
M$35 \$56 \$55 \$63 VDD pfet_03v3 L=0.28U W=1U AS=0.65P AD=0.65P PS=3.3U PD=3.3U
M$36 \$116 RSTn VDD VDD pfet_03v3 L=0.28U W=1U AS=0.65P AD=0.65P PS=3.3U PD=3.3U
M$37 \$116 \$106 VDD VDD pfet_03v3 L=0.28U W=1U AS=0.65P AD=0.65P PS=3.3U
+ PD=3.3U
M$38 \$139 \$116 \$106 VDD pfet_03v3 L=0.28U W=1U AS=0.65P AD=0.65P PS=3.3U
+ PD=3.3U
M$39 VDD \$108 \$139 VDD pfet_03v3 L=0.28U W=1U AS=0.65P AD=0.65P PS=3.3U
+ PD=3.3U
M$40 Q13 \$116 VDD VDD pfet_03v3 L=0.28U W=1U AS=0.65P AD=0.65P PS=3.3U PD=3.3U
M$41 \$119 \$116 VDD VDD pfet_03v3 L=0.28U W=1U AS=0.65P AD=0.65P PS=3.3U
+ PD=3.3U
M$42 Qb13 \$119 VDD VDD pfet_03v3 L=0.28U W=1U AS=0.65P AD=0.65P PS=3.3U PD=3.3U
M$43 \$156 CLK VDD VDD pfet_03v3 L=0.28U W=1U AS=0.65P AD=0.65P PS=3.3U PD=3.3U
M$44 \$158 \$156 VDD VDD pfet_03v3 L=0.28U W=1U AS=0.65P AD=0.65P PS=3.3U
+ PD=3.3U
M$45 \$188 \$158 VDD VDD pfet_03v3 L=0.28U W=1U AS=0.65P AD=0.65P PS=3.3U
+ PD=3.3U
M$46 \$111 D13 \$138 VDD pfet_03v3 L=0.28U W=1U AS=0.65P AD=0.65P PS=3.3U
+ PD=3.3U
M$47 \$112 \$105 \$111 VDD pfet_03v3 L=0.28U W=1U AS=0.65P AD=0.65P PS=3.3U
+ PD=3.3U
M$48 VDD RSTn \$112 VDD pfet_03v3 L=0.28U W=1U AS=0.65P AD=0.65P PS=3.3U PD=3.3U
M$49 \$112 \$114 VDD VDD pfet_03v3 L=0.28U W=1U AS=0.65P AD=0.65P PS=3.3U
+ PD=3.3U
M$50 VDD \$111 \$114 VDD pfet_03v3 L=0.28U W=1U AS=0.65P AD=0.65P PS=3.3U
+ PD=3.3U
M$51 \$106 \$105 \$114 VDD pfet_03v3 L=0.28U W=1U AS=0.65P AD=0.65P PS=3.3U
+ PD=3.3U
M$52 \$166 RSTn VDD VDD pfet_03v3 L=0.28U W=1U AS=0.65P AD=0.65P PS=3.3U PD=3.3U
M$53 \$166 \$157 VDD VDD pfet_03v3 L=0.28U W=1U AS=0.65P AD=0.65P PS=3.3U
+ PD=3.3U
M$54 \$189 \$166 \$157 VDD pfet_03v3 L=0.28U W=1U AS=0.65P AD=0.65P PS=3.3U
+ PD=3.3U
M$55 VDD \$158 \$189 VDD pfet_03v3 L=0.28U W=1U AS=0.65P AD=0.65P PS=3.3U
+ PD=3.3U
M$56 Q12 \$166 VDD VDD pfet_03v3 L=0.28U W=1U AS=0.65P AD=0.65P PS=3.3U PD=3.3U
M$57 \$169 \$166 VDD VDD pfet_03v3 L=0.28U W=1U AS=0.65P AD=0.65P PS=3.3U
+ PD=3.3U
M$58 Qb12 \$169 VDD VDD pfet_03v3 L=0.28U W=1U AS=0.65P AD=0.65P PS=3.3U PD=3.3U
M$59 \$206 CLK VDD VDD pfet_03v3 L=0.28U W=1U AS=0.65P AD=0.65P PS=3.3U PD=3.3U
M$60 \$209 \$206 VDD VDD pfet_03v3 L=0.28U W=1U AS=0.65P AD=0.65P PS=3.3U
+ PD=3.3U
M$61 \$239 \$209 VDD VDD pfet_03v3 L=0.28U W=1U AS=0.65P AD=0.65P PS=3.3U
+ PD=3.3U
M$62 \$161 D12 \$188 VDD pfet_03v3 L=0.28U W=1U AS=0.65P AD=0.65P PS=3.3U
+ PD=3.3U
M$63 \$162 \$156 \$161 VDD pfet_03v3 L=0.28U W=1U AS=0.65P AD=0.65P PS=3.3U
+ PD=3.3U
M$64 VDD RSTn \$162 VDD pfet_03v3 L=0.28U W=1U AS=0.65P AD=0.65P PS=3.3U PD=3.3U
M$65 \$162 \$164 VDD VDD pfet_03v3 L=0.28U W=1U AS=0.65P AD=0.65P PS=3.3U
+ PD=3.3U
M$66 VDD \$161 \$164 VDD pfet_03v3 L=0.28U W=1U AS=0.65P AD=0.65P PS=3.3U
+ PD=3.3U
M$67 \$157 \$156 \$164 VDD pfet_03v3 L=0.28U W=1U AS=0.65P AD=0.65P PS=3.3U
+ PD=3.3U
M$68 \$217 RSTn VDD VDD pfet_03v3 L=0.28U W=1U AS=0.65P AD=0.65P PS=3.3U PD=3.3U
M$69 \$217 \$207 VDD VDD pfet_03v3 L=0.28U W=1U AS=0.65P AD=0.65P PS=3.3U
+ PD=3.3U
M$70 \$240 \$217 \$207 VDD pfet_03v3 L=0.28U W=1U AS=0.65P AD=0.65P PS=3.3U
+ PD=3.3U
M$71 VDD \$209 \$240 VDD pfet_03v3 L=0.28U W=1U AS=0.65P AD=0.65P PS=3.3U
+ PD=3.3U
M$72 Q11 \$217 VDD VDD pfet_03v3 L=0.28U W=1U AS=0.65P AD=0.65P PS=3.3U PD=3.3U
M$73 \$220 \$217 VDD VDD pfet_03v3 L=0.28U W=1U AS=0.65P AD=0.65P PS=3.3U
+ PD=3.3U
M$74 Qb11 \$220 VDD VDD pfet_03v3 L=0.28U W=1U AS=0.65P AD=0.65P PS=3.3U PD=3.3U
M$75 \$257 CLK VDD VDD pfet_03v3 L=0.28U W=1U AS=0.65P AD=0.65P PS=3.3U PD=3.3U
M$76 \$259 \$257 VDD VDD pfet_03v3 L=0.28U W=1U AS=0.65P AD=0.65P PS=3.3U
+ PD=3.3U
M$77 \$289 \$259 VDD VDD pfet_03v3 L=0.28U W=1U AS=0.65P AD=0.65P PS=3.3U
+ PD=3.3U
M$78 \$212 D11 \$239 VDD pfet_03v3 L=0.28U W=1U AS=0.65P AD=0.65P PS=3.3U
+ PD=3.3U
M$79 \$213 \$206 \$212 VDD pfet_03v3 L=0.28U W=1U AS=0.65P AD=0.65P PS=3.3U
+ PD=3.3U
M$80 VDD RSTn \$213 VDD pfet_03v3 L=0.28U W=1U AS=0.65P AD=0.65P PS=3.3U PD=3.3U
M$81 \$213 \$215 VDD VDD pfet_03v3 L=0.28U W=1U AS=0.65P AD=0.65P PS=3.3U
+ PD=3.3U
M$82 VDD \$212 \$215 VDD pfet_03v3 L=0.28U W=1U AS=0.65P AD=0.65P PS=3.3U
+ PD=3.3U
M$83 \$207 \$206 \$215 VDD pfet_03v3 L=0.28U W=1U AS=0.65P AD=0.65P PS=3.3U
+ PD=3.3U
M$84 \$267 RSTn VDD VDD pfet_03v3 L=0.28U W=1U AS=0.65P AD=0.65P PS=3.3U PD=3.3U
M$85 \$267 \$258 VDD VDD pfet_03v3 L=0.28U W=1U AS=0.65P AD=0.65P PS=3.3U
+ PD=3.3U
M$86 \$290 \$267 \$258 VDD pfet_03v3 L=0.28U W=1U AS=0.65P AD=0.65P PS=3.3U
+ PD=3.3U
M$87 VDD \$259 \$290 VDD pfet_03v3 L=0.28U W=1U AS=0.65P AD=0.65P PS=3.3U
+ PD=3.3U
M$88 Q10 \$267 VDD VDD pfet_03v3 L=0.28U W=1U AS=0.65P AD=0.65P PS=3.3U PD=3.3U
M$89 \$270 \$267 VDD VDD pfet_03v3 L=0.28U W=1U AS=0.65P AD=0.65P PS=3.3U
+ PD=3.3U
M$90 Qb10 \$270 VDD VDD pfet_03v3 L=0.28U W=1U AS=0.65P AD=0.65P PS=3.3U PD=3.3U
M$91 \$307 CLK VDD VDD pfet_03v3 L=0.28U W=1U AS=0.65P AD=0.65P PS=3.3U PD=3.3U
M$92 \$310 \$307 VDD VDD pfet_03v3 L=0.28U W=1U AS=0.65P AD=0.65P PS=3.3U
+ PD=3.3U
M$93 \$340 \$310 VDD VDD pfet_03v3 L=0.28U W=1U AS=0.65P AD=0.65P PS=3.3U
+ PD=3.3U
M$94 \$262 D10 \$289 VDD pfet_03v3 L=0.28U W=1U AS=0.65P AD=0.65P PS=3.3U
+ PD=3.3U
M$95 \$263 \$257 \$262 VDD pfet_03v3 L=0.28U W=1U AS=0.65P AD=0.65P PS=3.3U
+ PD=3.3U
M$96 VDD RSTn \$263 VDD pfet_03v3 L=0.28U W=1U AS=0.65P AD=0.65P PS=3.3U PD=3.3U
M$97 \$263 \$265 VDD VDD pfet_03v3 L=0.28U W=1U AS=0.65P AD=0.65P PS=3.3U
+ PD=3.3U
M$98 VDD \$262 \$265 VDD pfet_03v3 L=0.28U W=1U AS=0.65P AD=0.65P PS=3.3U
+ PD=3.3U
M$99 \$258 \$257 \$265 VDD pfet_03v3 L=0.28U W=1U AS=0.65P AD=0.65P PS=3.3U
+ PD=3.3U
M$100 \$318 RSTn VDD VDD pfet_03v3 L=0.28U W=1U AS=0.65P AD=0.65P PS=3.3U
+ PD=3.3U
M$101 \$318 \$308 VDD VDD pfet_03v3 L=0.28U W=1U AS=0.65P AD=0.65P PS=3.3U
+ PD=3.3U
M$102 \$341 \$318 \$308 VDD pfet_03v3 L=0.28U W=1U AS=0.65P AD=0.65P PS=3.3U
+ PD=3.3U
M$103 VDD \$310 \$341 VDD pfet_03v3 L=0.28U W=1U AS=0.65P AD=0.65P PS=3.3U
+ PD=3.3U
M$104 Q9 \$318 VDD VDD pfet_03v3 L=0.28U W=1U AS=0.65P AD=0.65P PS=3.3U PD=3.3U
M$105 \$321 \$318 VDD VDD pfet_03v3 L=0.28U W=1U AS=0.65P AD=0.65P PS=3.3U
+ PD=3.3U
M$106 Qb9 \$321 VDD VDD pfet_03v3 L=0.28U W=1U AS=0.65P AD=0.65P PS=3.3U PD=3.3U
M$107 \$358 CLK VDD VDD pfet_03v3 L=0.28U W=1U AS=0.65P AD=0.65P PS=3.3U PD=3.3U
M$108 \$360 \$358 VDD VDD pfet_03v3 L=0.28U W=1U AS=0.65P AD=0.65P PS=3.3U
+ PD=3.3U
M$109 \$390 \$360 VDD VDD pfet_03v3 L=0.28U W=1U AS=0.65P AD=0.65P PS=3.3U
+ PD=3.3U
M$110 \$313 D9 \$340 VDD pfet_03v3 L=0.28U W=1U AS=0.65P AD=0.65P PS=3.3U
+ PD=3.3U
M$111 \$314 \$307 \$313 VDD pfet_03v3 L=0.28U W=1U AS=0.65P AD=0.65P PS=3.3U
+ PD=3.3U
M$112 VDD RSTn \$314 VDD pfet_03v3 L=0.28U W=1U AS=0.65P AD=0.65P PS=3.3U
+ PD=3.3U
M$113 \$314 \$316 VDD VDD pfet_03v3 L=0.28U W=1U AS=0.65P AD=0.65P PS=3.3U
+ PD=3.3U
M$114 VDD \$313 \$316 VDD pfet_03v3 L=0.28U W=1U AS=0.65P AD=0.65P PS=3.3U
+ PD=3.3U
M$115 \$308 \$307 \$316 VDD pfet_03v3 L=0.28U W=1U AS=0.65P AD=0.65P PS=3.3U
+ PD=3.3U
M$116 \$367 RSTn VDD VDD pfet_03v3 L=0.28U W=1U AS=0.65P AD=0.65P PS=3.3U
+ PD=3.3U
M$117 \$367 \$359 VDD VDD pfet_03v3 L=0.28U W=1U AS=0.65P AD=0.65P PS=3.3U
+ PD=3.3U
M$118 \$391 \$367 \$359 VDD pfet_03v3 L=0.28U W=1U AS=0.65P AD=0.65P PS=3.3U
+ PD=3.3U
M$119 VDD \$360 \$391 VDD pfet_03v3 L=0.28U W=1U AS=0.65P AD=0.65P PS=3.3U
+ PD=3.3U
M$120 Q8 \$367 VDD VDD pfet_03v3 L=0.28U W=1U AS=0.65P AD=0.65P PS=3.3U PD=3.3U
M$121 \$370 \$367 VDD VDD pfet_03v3 L=0.28U W=1U AS=0.65P AD=0.65P PS=3.3U
+ PD=3.3U
M$122 Qb8 \$370 VDD VDD pfet_03v3 L=0.28U W=1U AS=0.65P AD=0.65P PS=3.3U PD=3.3U
M$123 \$408 CLK VDD VDD pfet_03v3 L=0.28U W=1U AS=0.65P AD=0.65P PS=3.3U PD=3.3U
M$124 \$409 \$408 VDD VDD pfet_03v3 L=0.28U W=1U AS=0.65P AD=0.65P PS=3.3U
+ PD=3.3U
M$125 \$441 \$409 VDD VDD pfet_03v3 L=0.28U W=1U AS=0.65P AD=0.65P PS=3.3U
+ PD=3.3U
M$126 \$362 D8 \$390 VDD pfet_03v3 L=0.28U W=1U AS=0.65P AD=0.65P PS=3.3U
+ PD=3.3U
M$127 \$363 \$358 \$362 VDD pfet_03v3 L=0.28U W=1U AS=0.65P AD=0.65P PS=3.3U
+ PD=3.3U
M$128 VDD RSTn \$363 VDD pfet_03v3 L=0.28U W=1U AS=0.65P AD=0.65P PS=3.3U
+ PD=3.3U
M$129 \$363 \$365 VDD VDD pfet_03v3 L=0.28U W=1U AS=0.65P AD=0.65P PS=3.3U
+ PD=3.3U
M$130 VDD \$362 \$365 VDD pfet_03v3 L=0.28U W=1U AS=0.65P AD=0.65P PS=3.3U
+ PD=3.3U
M$131 \$359 \$358 \$365 VDD pfet_03v3 L=0.28U W=1U AS=0.65P AD=0.65P PS=3.3U
+ PD=3.3U
M$132 \$423 RSTn VDD VDD pfet_03v3 L=0.28U W=1U AS=0.65P AD=0.65P PS=3.3U
+ PD=3.3U
M$133 \$423 \$421 VDD VDD pfet_03v3 L=0.28U W=1U AS=0.65P AD=0.65P PS=3.3U
+ PD=3.3U
M$134 \$442 \$423 \$421 VDD pfet_03v3 L=0.28U W=1U AS=0.65P AD=0.65P PS=3.3U
+ PD=3.3U
M$135 VDD \$409 \$442 VDD pfet_03v3 L=0.28U W=1U AS=0.65P AD=0.65P PS=3.3U
+ PD=3.3U
M$136 Q7 \$423 VDD VDD pfet_03v3 L=0.28U W=1U AS=0.65P AD=0.65P PS=3.3U PD=3.3U
M$137 \$412 \$423 VDD VDD pfet_03v3 L=0.28U W=1U AS=0.65P AD=0.65P PS=3.3U
+ PD=3.3U
M$138 Qb7 \$412 VDD VDD pfet_03v3 L=0.28U W=1U AS=0.65P AD=0.65P PS=3.3U PD=3.3U
M$139 \$459 CLK VDD VDD pfet_03v3 L=0.28U W=1U AS=0.65P AD=0.65P PS=3.3U PD=3.3U
M$140 \$461 \$459 VDD VDD pfet_03v3 L=0.28U W=1U AS=0.65P AD=0.65P PS=3.3U
+ PD=3.3U
M$141 \$491 \$461 VDD VDD pfet_03v3 L=0.28U W=1U AS=0.65P AD=0.65P PS=3.3U
+ PD=3.3U
M$142 \$416 D7 \$441 VDD pfet_03v3 L=0.28U W=1U AS=0.65P AD=0.65P PS=3.3U
+ PD=3.3U
M$143 \$417 \$408 \$416 VDD pfet_03v3 L=0.28U W=1U AS=0.65P AD=0.65P PS=3.3U
+ PD=3.3U
M$144 VDD RSTn \$417 VDD pfet_03v3 L=0.28U W=1U AS=0.65P AD=0.65P PS=3.3U
+ PD=3.3U
M$145 \$417 \$419 VDD VDD pfet_03v3 L=0.28U W=1U AS=0.65P AD=0.65P PS=3.3U
+ PD=3.3U
M$146 VDD \$416 \$419 VDD pfet_03v3 L=0.28U W=1U AS=0.65P AD=0.65P PS=3.3U
+ PD=3.3U
M$147 \$421 \$408 \$419 VDD pfet_03v3 L=0.28U W=1U AS=0.65P AD=0.65P PS=3.3U
+ PD=3.3U
M$148 \$468 RSTn VDD VDD pfet_03v3 L=0.28U W=1U AS=0.65P AD=0.65P PS=3.3U
+ PD=3.3U
M$149 \$468 \$460 VDD VDD pfet_03v3 L=0.28U W=1U AS=0.65P AD=0.65P PS=3.3U
+ PD=3.3U
M$150 \$492 \$468 \$460 VDD pfet_03v3 L=0.28U W=1U AS=0.65P AD=0.65P PS=3.3U
+ PD=3.3U
M$151 VDD \$461 \$492 VDD pfet_03v3 L=0.28U W=1U AS=0.65P AD=0.65P PS=3.3U
+ PD=3.3U
M$152 Q6 \$468 VDD VDD pfet_03v3 L=0.28U W=1U AS=0.65P AD=0.65P PS=3.3U PD=3.3U
M$153 \$471 \$468 VDD VDD pfet_03v3 L=0.28U W=1U AS=0.65P AD=0.65P PS=3.3U
+ PD=3.3U
M$154 Qb6 \$471 VDD VDD pfet_03v3 L=0.28U W=1U AS=0.65P AD=0.65P PS=3.3U PD=3.3U
M$155 \$509 CLK VDD VDD pfet_03v3 L=0.28U W=1U AS=0.65P AD=0.65P PS=3.3U PD=3.3U
M$156 \$510 \$509 VDD VDD pfet_03v3 L=0.28U W=1U AS=0.65P AD=0.65P PS=3.3U
+ PD=3.3U
M$157 \$542 \$510 VDD VDD pfet_03v3 L=0.28U W=1U AS=0.65P AD=0.65P PS=3.3U
+ PD=3.3U
M$158 \$463 D6 \$491 VDD pfet_03v3 L=0.28U W=1U AS=0.65P AD=0.65P PS=3.3U
+ PD=3.3U
M$159 \$464 \$459 \$463 VDD pfet_03v3 L=0.28U W=1U AS=0.65P AD=0.65P PS=3.3U
+ PD=3.3U
M$160 VDD RSTn \$464 VDD pfet_03v3 L=0.28U W=1U AS=0.65P AD=0.65P PS=3.3U
+ PD=3.3U
M$161 \$464 \$466 VDD VDD pfet_03v3 L=0.28U W=1U AS=0.65P AD=0.65P PS=3.3U
+ PD=3.3U
M$162 VDD \$463 \$466 VDD pfet_03v3 L=0.28U W=1U AS=0.65P AD=0.65P PS=3.3U
+ PD=3.3U
M$163 \$460 \$459 \$466 VDD pfet_03v3 L=0.28U W=1U AS=0.65P AD=0.65P PS=3.3U
+ PD=3.3U
M$164 \$524 RSTn VDD VDD pfet_03v3 L=0.28U W=1U AS=0.65P AD=0.65P PS=3.3U
+ PD=3.3U
M$165 \$524 \$522 VDD VDD pfet_03v3 L=0.28U W=1U AS=0.65P AD=0.65P PS=3.3U
+ PD=3.3U
M$166 \$543 \$524 \$522 VDD pfet_03v3 L=0.28U W=1U AS=0.65P AD=0.65P PS=3.3U
+ PD=3.3U
M$167 VDD \$510 \$543 VDD pfet_03v3 L=0.28U W=1U AS=0.65P AD=0.65P PS=3.3U
+ PD=3.3U
M$168 Q5 \$524 VDD VDD pfet_03v3 L=0.28U W=1U AS=0.65P AD=0.65P PS=3.3U PD=3.3U
M$169 \$513 \$524 VDD VDD pfet_03v3 L=0.28U W=1U AS=0.65P AD=0.65P PS=3.3U
+ PD=3.3U
M$170 Qb5 \$513 VDD VDD pfet_03v3 L=0.28U W=1U AS=0.65P AD=0.65P PS=3.3U PD=3.3U
M$171 \$560 CLK VDD VDD pfet_03v3 L=0.28U W=1U AS=0.65P AD=0.65P PS=3.3U PD=3.3U
M$172 \$562 \$560 VDD VDD pfet_03v3 L=0.28U W=1U AS=0.65P AD=0.65P PS=3.3U
+ PD=3.3U
M$173 \$592 \$562 VDD VDD pfet_03v3 L=0.28U W=1U AS=0.65P AD=0.65P PS=3.3U
+ PD=3.3U
M$174 \$517 D5 \$542 VDD pfet_03v3 L=0.28U W=1U AS=0.65P AD=0.65P PS=3.3U
+ PD=3.3U
M$175 \$518 \$509 \$517 VDD pfet_03v3 L=0.28U W=1U AS=0.65P AD=0.65P PS=3.3U
+ PD=3.3U
M$176 VDD RSTn \$518 VDD pfet_03v3 L=0.28U W=1U AS=0.65P AD=0.65P PS=3.3U
+ PD=3.3U
M$177 \$518 \$520 VDD VDD pfet_03v3 L=0.28U W=1U AS=0.65P AD=0.65P PS=3.3U
+ PD=3.3U
M$178 VDD \$517 \$520 VDD pfet_03v3 L=0.28U W=1U AS=0.65P AD=0.65P PS=3.3U
+ PD=3.3U
M$179 \$522 \$509 \$520 VDD pfet_03v3 L=0.28U W=1U AS=0.65P AD=0.65P PS=3.3U
+ PD=3.3U
M$180 \$569 RSTn VDD VDD pfet_03v3 L=0.28U W=1U AS=0.65P AD=0.65P PS=3.3U
+ PD=3.3U
M$181 \$569 \$561 VDD VDD pfet_03v3 L=0.28U W=1U AS=0.65P AD=0.65P PS=3.3U
+ PD=3.3U
M$182 \$593 \$569 \$561 VDD pfet_03v3 L=0.28U W=1U AS=0.65P AD=0.65P PS=3.3U
+ PD=3.3U
M$183 VDD \$562 \$593 VDD pfet_03v3 L=0.28U W=1U AS=0.65P AD=0.65P PS=3.3U
+ PD=3.3U
M$184 Q4 \$569 VDD VDD pfet_03v3 L=0.28U W=1U AS=0.65P AD=0.65P PS=3.3U PD=3.3U
M$185 \$572 \$569 VDD VDD pfet_03v3 L=0.28U W=1U AS=0.65P AD=0.65P PS=3.3U
+ PD=3.3U
M$186 Qb4 \$572 VDD VDD pfet_03v3 L=0.28U W=1U AS=0.65P AD=0.65P PS=3.3U PD=3.3U
M$187 \$610 CLK VDD VDD pfet_03v3 L=0.28U W=1U AS=0.65P AD=0.65P PS=3.3U PD=3.3U
M$188 \$611 \$610 VDD VDD pfet_03v3 L=0.28U W=1U AS=0.65P AD=0.65P PS=3.3U
+ PD=3.3U
M$189 \$643 \$611 VDD VDD pfet_03v3 L=0.28U W=1U AS=0.65P AD=0.65P PS=3.3U
+ PD=3.3U
M$190 \$564 D4 \$592 VDD pfet_03v3 L=0.28U W=1U AS=0.65P AD=0.65P PS=3.3U
+ PD=3.3U
M$191 \$565 \$560 \$564 VDD pfet_03v3 L=0.28U W=1U AS=0.65P AD=0.65P PS=3.3U
+ PD=3.3U
M$192 VDD RSTn \$565 VDD pfet_03v3 L=0.28U W=1U AS=0.65P AD=0.65P PS=3.3U
+ PD=3.3U
M$193 \$565 \$567 VDD VDD pfet_03v3 L=0.28U W=1U AS=0.65P AD=0.65P PS=3.3U
+ PD=3.3U
M$194 VDD \$564 \$567 VDD pfet_03v3 L=0.28U W=1U AS=0.65P AD=0.65P PS=3.3U
+ PD=3.3U
M$195 \$561 \$560 \$567 VDD pfet_03v3 L=0.28U W=1U AS=0.65P AD=0.65P PS=3.3U
+ PD=3.3U
M$196 \$625 RSTn VDD VDD pfet_03v3 L=0.28U W=1U AS=0.65P AD=0.65P PS=3.3U
+ PD=3.3U
M$197 \$625 \$623 VDD VDD pfet_03v3 L=0.28U W=1U AS=0.65P AD=0.65P PS=3.3U
+ PD=3.3U
M$198 \$644 \$625 \$623 VDD pfet_03v3 L=0.28U W=1U AS=0.65P AD=0.65P PS=3.3U
+ PD=3.3U
M$199 VDD \$611 \$644 VDD pfet_03v3 L=0.28U W=1U AS=0.65P AD=0.65P PS=3.3U
+ PD=3.3U
M$200 Q3 \$625 VDD VDD pfet_03v3 L=0.28U W=1U AS=0.65P AD=0.65P PS=3.3U PD=3.3U
M$201 \$614 \$625 VDD VDD pfet_03v3 L=0.28U W=1U AS=0.65P AD=0.65P PS=3.3U
+ PD=3.3U
M$202 Qb3 \$614 VDD VDD pfet_03v3 L=0.28U W=1U AS=0.65P AD=0.65P PS=3.3U PD=3.3U
M$203 \$661 CLK VDD VDD pfet_03v3 L=0.28U W=1U AS=0.65P AD=0.65P PS=3.3U PD=3.3U
M$204 \$663 \$661 VDD VDD pfet_03v3 L=0.28U W=1U AS=0.65P AD=0.65P PS=3.3U
+ PD=3.3U
M$205 \$693 \$663 VDD VDD pfet_03v3 L=0.28U W=1U AS=0.65P AD=0.65P PS=3.3U
+ PD=3.3U
M$206 \$618 D3 \$643 VDD pfet_03v3 L=0.28U W=1U AS=0.65P AD=0.65P PS=3.3U
+ PD=3.3U
M$207 \$619 \$610 \$618 VDD pfet_03v3 L=0.28U W=1U AS=0.65P AD=0.65P PS=3.3U
+ PD=3.3U
M$208 VDD RSTn \$619 VDD pfet_03v3 L=0.28U W=1U AS=0.65P AD=0.65P PS=3.3U
+ PD=3.3U
M$209 \$619 \$621 VDD VDD pfet_03v3 L=0.28U W=1U AS=0.65P AD=0.65P PS=3.3U
+ PD=3.3U
M$210 VDD \$618 \$621 VDD pfet_03v3 L=0.28U W=1U AS=0.65P AD=0.65P PS=3.3U
+ PD=3.3U
M$211 \$623 \$610 \$621 VDD pfet_03v3 L=0.28U W=1U AS=0.65P AD=0.65P PS=3.3U
+ PD=3.3U
M$212 \$670 RSTn VDD VDD pfet_03v3 L=0.28U W=1U AS=0.65P AD=0.65P PS=3.3U
+ PD=3.3U
M$213 \$670 \$662 VDD VDD pfet_03v3 L=0.28U W=1U AS=0.65P AD=0.65P PS=3.3U
+ PD=3.3U
M$214 \$694 \$670 \$662 VDD pfet_03v3 L=0.28U W=1U AS=0.65P AD=0.65P PS=3.3U
+ PD=3.3U
M$215 VDD \$663 \$694 VDD pfet_03v3 L=0.28U W=1U AS=0.65P AD=0.65P PS=3.3U
+ PD=3.3U
M$216 Q2 \$670 VDD VDD pfet_03v3 L=0.28U W=1U AS=0.65P AD=0.65P PS=3.3U PD=3.3U
M$217 \$673 \$670 VDD VDD pfet_03v3 L=0.28U W=1U AS=0.65P AD=0.65P PS=3.3U
+ PD=3.3U
M$218 Qb2 \$673 VDD VDD pfet_03v3 L=0.28U W=1U AS=0.65P AD=0.65P PS=3.3U PD=3.3U
M$219 \$711 CLK VDD VDD pfet_03v3 L=0.28U W=1U AS=0.65P AD=0.65P PS=3.3U PD=3.3U
M$220 \$713 \$711 VDD VDD pfet_03v3 L=0.28U W=1U AS=0.65P AD=0.65P PS=3.3U
+ PD=3.3U
M$221 \$744 \$713 VDD VDD pfet_03v3 L=0.28U W=1U AS=0.65P AD=0.65P PS=3.3U
+ PD=3.3U
M$222 \$665 D2 \$693 VDD pfet_03v3 L=0.28U W=1U AS=0.65P AD=0.65P PS=3.3U
+ PD=3.3U
M$223 \$666 \$661 \$665 VDD pfet_03v3 L=0.28U W=1U AS=0.65P AD=0.65P PS=3.3U
+ PD=3.3U
M$224 VDD RSTn \$666 VDD pfet_03v3 L=0.28U W=1U AS=0.65P AD=0.65P PS=3.3U
+ PD=3.3U
M$225 \$666 \$668 VDD VDD pfet_03v3 L=0.28U W=1U AS=0.65P AD=0.65P PS=3.3U
+ PD=3.3U
M$226 VDD \$665 \$668 VDD pfet_03v3 L=0.28U W=1U AS=0.65P AD=0.65P PS=3.3U
+ PD=3.3U
M$227 \$662 \$661 \$668 VDD pfet_03v3 L=0.28U W=1U AS=0.65P AD=0.65P PS=3.3U
+ PD=3.3U
M$228 \$720 RSTn VDD VDD pfet_03v3 L=0.28U W=1U AS=0.65P AD=0.65P PS=3.3U
+ PD=3.3U
M$229 \$720 \$712 VDD VDD pfet_03v3 L=0.28U W=1U AS=0.65P AD=0.65P PS=3.3U
+ PD=3.3U
M$230 \$745 \$720 \$712 VDD pfet_03v3 L=0.28U W=1U AS=0.65P AD=0.65P PS=3.3U
+ PD=3.3U
M$231 VDD \$713 \$745 VDD pfet_03v3 L=0.28U W=1U AS=0.65P AD=0.65P PS=3.3U
+ PD=3.3U
M$232 Q1 \$720 VDD VDD pfet_03v3 L=0.28U W=1U AS=0.65P AD=0.65P PS=3.3U PD=3.3U
M$233 \$723 \$720 VDD VDD pfet_03v3 L=0.28U W=1U AS=0.65P AD=0.65P PS=3.3U
+ PD=3.3U
M$234 Qb1 \$723 VDD VDD pfet_03v3 L=0.28U W=1U AS=0.65P AD=0.65P PS=3.3U PD=3.3U
M$235 \$762 CLK VDD VDD pfet_03v3 L=0.28U W=1U AS=0.65P AD=0.65P PS=3.3U PD=3.3U
M$236 \$764 \$762 VDD VDD pfet_03v3 L=0.28U W=1U AS=0.65P AD=0.65P PS=3.3U
+ PD=3.3U
M$237 \$794 \$764 VDD VDD pfet_03v3 L=0.28U W=1U AS=0.65P AD=0.65P PS=3.3U
+ PD=3.3U
M$238 \$715 D1 \$744 VDD pfet_03v3 L=0.28U W=1U AS=0.65P AD=0.65P PS=3.3U
+ PD=3.3U
M$239 \$716 \$711 \$715 VDD pfet_03v3 L=0.28U W=1U AS=0.65P AD=0.65P PS=3.3U
+ PD=3.3U
M$240 VDD RSTn \$716 VDD pfet_03v3 L=0.28U W=1U AS=0.65P AD=0.65P PS=3.3U
+ PD=3.3U
M$241 \$716 \$718 VDD VDD pfet_03v3 L=0.28U W=1U AS=0.65P AD=0.65P PS=3.3U
+ PD=3.3U
M$242 VDD \$715 \$718 VDD pfet_03v3 L=0.28U W=1U AS=0.65P AD=0.65P PS=3.3U
+ PD=3.3U
M$243 \$712 \$711 \$718 VDD pfet_03v3 L=0.28U W=1U AS=0.65P AD=0.65P PS=3.3U
+ PD=3.3U
M$244 \$792 RSTn VDD VDD pfet_03v3 L=0.28U W=1U AS=0.65P AD=0.65P PS=3.3U
+ PD=3.3U
M$245 \$792 \$763 VDD VDD pfet_03v3 L=0.28U W=1U AS=0.65P AD=0.65P PS=3.3U
+ PD=3.3U
M$246 \$795 \$792 \$763 VDD pfet_03v3 L=0.28U W=1U AS=0.65P AD=0.65P PS=3.3U
+ PD=3.3U
M$247 VDD \$764 \$795 VDD pfet_03v3 L=0.28U W=1U AS=0.65P AD=0.65P PS=3.3U
+ PD=3.3U
M$248 Q0 \$792 VDD VDD pfet_03v3 L=0.28U W=1U AS=0.65P AD=0.65P PS=3.3U PD=3.3U
M$249 \$773 \$792 VDD VDD pfet_03v3 L=0.28U W=1U AS=0.65P AD=0.65P PS=3.3U
+ PD=3.3U
M$250 Qb0 \$773 VDD VDD pfet_03v3 L=0.28U W=1U AS=0.65P AD=0.65P PS=3.3U PD=3.3U
M$251 \$766 D0 \$794 VDD pfet_03v3 L=0.28U W=1U AS=0.65P AD=0.65P PS=3.3U
+ PD=3.3U
M$252 \$767 \$762 \$766 VDD pfet_03v3 L=0.28U W=1U AS=0.65P AD=0.65P PS=3.3U
+ PD=3.3U
M$253 VDD RSTn \$767 VDD pfet_03v3 L=0.28U W=1U AS=0.65P AD=0.65P PS=3.3U
+ PD=3.3U
M$254 \$767 \$769 VDD VDD pfet_03v3 L=0.28U W=1U AS=0.65P AD=0.65P PS=3.3U
+ PD=3.3U
M$255 VDD \$766 \$769 VDD pfet_03v3 L=0.28U W=1U AS=0.65P AD=0.65P PS=3.3U
+ PD=3.3U
M$256 \$763 \$762 \$769 VDD pfet_03v3 L=0.28U W=1U AS=0.65P AD=0.65P PS=3.3U
+ PD=3.3U
M$257 \$2 CLK vss vss nfet_03v3 L=0.28U W=1U AS=0.61P AD=0.61P PS=3.22U PD=3.22U
M$258 \$4 \$2 vss vss nfet_03v3 L=0.28U W=1U AS=0.61P AD=0.61P PS=3.22U PD=3.22U
M$259 \$5 \$2 vss vss nfet_03v3 L=0.28U W=1U AS=0.61P AD=0.61P PS=3.22U PD=3.22U
M$260 vss \$2 \$8 vss nfet_03v3 L=0.28U W=1U AS=0.61P AD=0.61P PS=3.22U PD=3.22U
M$261 \$6 \$4 \$14 vss nfet_03v3 L=0.28U W=1U AS=0.61P AD=0.61P PS=3.22U
+ PD=3.22U
M$262 \$7 \$4 \$16 vss nfet_03v3 L=0.28U W=1U AS=0.61P AD=0.61P PS=3.22U
+ PD=3.22U
M$263 \$9 \$19 vss vss nfet_03v3 L=0.28U W=1U AS=0.61P AD=0.61P PS=3.22U
+ PD=3.22U
M$264 Qb15 \$9 vss vss nfet_03v3 L=0.28U W=1U AS=0.61P AD=0.61P PS=3.22U
+ PD=3.22U
M$265 \$14 D15 \$5 vss nfet_03v3 L=0.28U W=1U AS=0.61P AD=0.61P PS=3.22U
+ PD=3.22U
M$266 \$15 RSTn \$6 vss nfet_03v3 L=0.28U W=1U AS=0.61P AD=0.61P PS=3.22U
+ PD=3.22U
M$267 vss \$16 \$15 vss nfet_03v3 L=0.28U W=1U AS=0.61P AD=0.61P PS=3.22U
+ PD=3.22U
M$268 vss \$14 \$16 vss nfet_03v3 L=0.28U W=1U AS=0.61P AD=0.61P PS=3.22U
+ PD=3.22U
M$269 \$18 RSTn vss vss nfet_03v3 L=0.28U W=1U AS=0.61P AD=0.61P PS=3.22U
+ PD=3.22U
M$270 \$19 \$7 \$18 vss nfet_03v3 L=0.28U W=1U AS=0.61P AD=0.61P PS=3.22U
+ PD=3.22U
M$271 \$8 \$19 \$7 vss nfet_03v3 L=0.28U W=1U AS=0.61P AD=0.61P PS=3.22U
+ PD=3.22U
M$272 Q15 \$19 vss vss nfet_03v3 L=0.28U W=1U AS=0.61P AD=0.61P PS=3.22U
+ PD=3.22U
M$273 \$55 CLK vss vss nfet_03v3 L=0.28U W=1U AS=0.61P AD=0.61P PS=3.22U
+ PD=3.22U
M$274 \$57 \$55 vss vss nfet_03v3 L=0.28U W=1U AS=0.61P AD=0.61P PS=3.22U
+ PD=3.22U
M$275 \$58 \$55 vss vss nfet_03v3 L=0.28U W=1U AS=0.61P AD=0.61P PS=3.22U
+ PD=3.22U
M$276 \$60 D14 \$58 vss nfet_03v3 L=0.28U W=1U AS=0.61P AD=0.61P PS=3.22U
+ PD=3.22U
M$277 \$61 \$57 \$60 vss nfet_03v3 L=0.28U W=1U AS=0.61P AD=0.61P PS=3.22U
+ PD=3.22U
M$278 \$62 RSTn \$61 vss nfet_03v3 L=0.28U W=1U AS=0.61P AD=0.61P PS=3.22U
+ PD=3.22U
M$279 vss \$63 \$62 vss nfet_03v3 L=0.28U W=1U AS=0.61P AD=0.61P PS=3.22U
+ PD=3.22U
M$280 vss \$60 \$63 vss nfet_03v3 L=0.28U W=1U AS=0.61P AD=0.61P PS=3.22U
+ PD=3.22U
M$281 \$56 \$57 \$63 vss nfet_03v3 L=0.28U W=1U AS=0.61P AD=0.61P PS=3.22U
+ PD=3.22U
M$282 \$64 RSTn vss vss nfet_03v3 L=0.28U W=1U AS=0.61P AD=0.61P PS=3.22U
+ PD=3.22U
M$283 \$65 \$56 \$64 vss nfet_03v3 L=0.28U W=1U AS=0.61P AD=0.61P PS=3.22U
+ PD=3.22U
M$284 \$66 \$65 \$56 vss nfet_03v3 L=0.28U W=1U AS=0.61P AD=0.61P PS=3.22U
+ PD=3.22U
M$285 vss \$55 \$66 vss nfet_03v3 L=0.28U W=1U AS=0.61P AD=0.61P PS=3.22U
+ PD=3.22U
M$286 Q14 \$65 vss vss nfet_03v3 L=0.28U W=1U AS=0.61P AD=0.61P PS=3.22U
+ PD=3.22U
M$287 \$68 \$65 vss vss nfet_03v3 L=0.28U W=1U AS=0.61P AD=0.61P PS=3.22U
+ PD=3.22U
M$288 Qb14 \$68 vss vss nfet_03v3 L=0.28U W=1U AS=0.61P AD=0.61P PS=3.22U
+ PD=3.22U
M$289 \$105 CLK vss vss nfet_03v3 L=0.28U W=1U AS=0.61P AD=0.61P PS=3.22U
+ PD=3.22U
M$290 \$108 \$105 vss vss nfet_03v3 L=0.28U W=1U AS=0.61P AD=0.61P PS=3.22U
+ PD=3.22U
M$291 \$109 \$105 vss vss nfet_03v3 L=0.28U W=1U AS=0.61P AD=0.61P PS=3.22U
+ PD=3.22U
M$292 \$111 D13 \$109 vss nfet_03v3 L=0.28U W=1U AS=0.61P AD=0.61P PS=3.22U
+ PD=3.22U
M$293 \$112 \$108 \$111 vss nfet_03v3 L=0.28U W=1U AS=0.61P AD=0.61P PS=3.22U
+ PD=3.22U
M$294 \$113 RSTn \$112 vss nfet_03v3 L=0.28U W=1U AS=0.61P AD=0.61P PS=3.22U
+ PD=3.22U
M$295 vss \$114 \$113 vss nfet_03v3 L=0.28U W=1U AS=0.61P AD=0.61P PS=3.22U
+ PD=3.22U
M$296 vss \$111 \$114 vss nfet_03v3 L=0.28U W=1U AS=0.61P AD=0.61P PS=3.22U
+ PD=3.22U
M$297 \$106 \$108 \$114 vss nfet_03v3 L=0.28U W=1U AS=0.61P AD=0.61P PS=3.22U
+ PD=3.22U
M$298 \$115 RSTn vss vss nfet_03v3 L=0.28U W=1U AS=0.61P AD=0.61P PS=3.22U
+ PD=3.22U
M$299 \$116 \$106 \$115 vss nfet_03v3 L=0.28U W=1U AS=0.61P AD=0.61P PS=3.22U
+ PD=3.22U
M$300 \$117 \$116 \$106 vss nfet_03v3 L=0.28U W=1U AS=0.61P AD=0.61P PS=3.22U
+ PD=3.22U
M$301 vss \$105 \$117 vss nfet_03v3 L=0.28U W=1U AS=0.61P AD=0.61P PS=3.22U
+ PD=3.22U
M$302 Q13 \$116 vss vss nfet_03v3 L=0.28U W=1U AS=0.61P AD=0.61P PS=3.22U
+ PD=3.22U
M$303 \$119 \$116 vss vss nfet_03v3 L=0.28U W=1U AS=0.61P AD=0.61P PS=3.22U
+ PD=3.22U
M$304 Qb13 \$119 vss vss nfet_03v3 L=0.28U W=1U AS=0.61P AD=0.61P PS=3.22U
+ PD=3.22U
M$305 \$156 CLK vss vss nfet_03v3 L=0.28U W=1U AS=0.61P AD=0.61P PS=3.22U
+ PD=3.22U
M$306 \$158 \$156 vss vss nfet_03v3 L=0.28U W=1U AS=0.61P AD=0.61P PS=3.22U
+ PD=3.22U
M$307 \$159 \$156 vss vss nfet_03v3 L=0.28U W=1U AS=0.61P AD=0.61P PS=3.22U
+ PD=3.22U
M$308 \$161 D12 \$159 vss nfet_03v3 L=0.28U W=1U AS=0.61P AD=0.61P PS=3.22U
+ PD=3.22U
M$309 \$162 \$158 \$161 vss nfet_03v3 L=0.28U W=1U AS=0.61P AD=0.61P PS=3.22U
+ PD=3.22U
M$310 \$163 RSTn \$162 vss nfet_03v3 L=0.28U W=1U AS=0.61P AD=0.61P PS=3.22U
+ PD=3.22U
M$311 vss \$164 \$163 vss nfet_03v3 L=0.28U W=1U AS=0.61P AD=0.61P PS=3.22U
+ PD=3.22U
M$312 vss \$161 \$164 vss nfet_03v3 L=0.28U W=1U AS=0.61P AD=0.61P PS=3.22U
+ PD=3.22U
M$313 \$157 \$158 \$164 vss nfet_03v3 L=0.28U W=1U AS=0.61P AD=0.61P PS=3.22U
+ PD=3.22U
M$314 \$165 RSTn vss vss nfet_03v3 L=0.28U W=1U AS=0.61P AD=0.61P PS=3.22U
+ PD=3.22U
M$315 \$166 \$157 \$165 vss nfet_03v3 L=0.28U W=1U AS=0.61P AD=0.61P PS=3.22U
+ PD=3.22U
M$316 \$167 \$166 \$157 vss nfet_03v3 L=0.28U W=1U AS=0.61P AD=0.61P PS=3.22U
+ PD=3.22U
M$317 vss \$156 \$167 vss nfet_03v3 L=0.28U W=1U AS=0.61P AD=0.61P PS=3.22U
+ PD=3.22U
M$318 Q12 \$166 vss vss nfet_03v3 L=0.28U W=1U AS=0.61P AD=0.61P PS=3.22U
+ PD=3.22U
M$319 \$169 \$166 vss vss nfet_03v3 L=0.28U W=1U AS=0.61P AD=0.61P PS=3.22U
+ PD=3.22U
M$320 Qb12 \$169 vss vss nfet_03v3 L=0.28U W=1U AS=0.61P AD=0.61P PS=3.22U
+ PD=3.22U
M$321 \$206 CLK vss vss nfet_03v3 L=0.28U W=1U AS=0.61P AD=0.61P PS=3.22U
+ PD=3.22U
M$322 \$209 \$206 vss vss nfet_03v3 L=0.28U W=1U AS=0.61P AD=0.61P PS=3.22U
+ PD=3.22U
M$323 \$210 \$206 vss vss nfet_03v3 L=0.28U W=1U AS=0.61P AD=0.61P PS=3.22U
+ PD=3.22U
M$324 \$212 D11 \$210 vss nfet_03v3 L=0.28U W=1U AS=0.61P AD=0.61P PS=3.22U
+ PD=3.22U
M$325 \$213 \$209 \$212 vss nfet_03v3 L=0.28U W=1U AS=0.61P AD=0.61P PS=3.22U
+ PD=3.22U
M$326 \$214 RSTn \$213 vss nfet_03v3 L=0.28U W=1U AS=0.61P AD=0.61P PS=3.22U
+ PD=3.22U
M$327 vss \$215 \$214 vss nfet_03v3 L=0.28U W=1U AS=0.61P AD=0.61P PS=3.22U
+ PD=3.22U
M$328 vss \$212 \$215 vss nfet_03v3 L=0.28U W=1U AS=0.61P AD=0.61P PS=3.22U
+ PD=3.22U
M$329 \$207 \$209 \$215 vss nfet_03v3 L=0.28U W=1U AS=0.61P AD=0.61P PS=3.22U
+ PD=3.22U
M$330 \$216 RSTn vss vss nfet_03v3 L=0.28U W=1U AS=0.61P AD=0.61P PS=3.22U
+ PD=3.22U
M$331 \$217 \$207 \$216 vss nfet_03v3 L=0.28U W=1U AS=0.61P AD=0.61P PS=3.22U
+ PD=3.22U
M$332 \$218 \$217 \$207 vss nfet_03v3 L=0.28U W=1U AS=0.61P AD=0.61P PS=3.22U
+ PD=3.22U
M$333 vss \$206 \$218 vss nfet_03v3 L=0.28U W=1U AS=0.61P AD=0.61P PS=3.22U
+ PD=3.22U
M$334 Q11 \$217 vss vss nfet_03v3 L=0.28U W=1U AS=0.61P AD=0.61P PS=3.22U
+ PD=3.22U
M$335 \$220 \$217 vss vss nfet_03v3 L=0.28U W=1U AS=0.61P AD=0.61P PS=3.22U
+ PD=3.22U
M$336 Qb11 \$220 vss vss nfet_03v3 L=0.28U W=1U AS=0.61P AD=0.61P PS=3.22U
+ PD=3.22U
M$337 \$257 CLK vss vss nfet_03v3 L=0.28U W=1U AS=0.61P AD=0.61P PS=3.22U
+ PD=3.22U
M$338 \$259 \$257 vss vss nfet_03v3 L=0.28U W=1U AS=0.61P AD=0.61P PS=3.22U
+ PD=3.22U
M$339 \$260 \$257 vss vss nfet_03v3 L=0.28U W=1U AS=0.61P AD=0.61P PS=3.22U
+ PD=3.22U
M$340 \$262 D10 \$260 vss nfet_03v3 L=0.28U W=1U AS=0.61P AD=0.61P PS=3.22U
+ PD=3.22U
M$341 \$263 \$259 \$262 vss nfet_03v3 L=0.28U W=1U AS=0.61P AD=0.61P PS=3.22U
+ PD=3.22U
M$342 \$264 RSTn \$263 vss nfet_03v3 L=0.28U W=1U AS=0.61P AD=0.61P PS=3.22U
+ PD=3.22U
M$343 vss \$265 \$264 vss nfet_03v3 L=0.28U W=1U AS=0.61P AD=0.61P PS=3.22U
+ PD=3.22U
M$344 vss \$262 \$265 vss nfet_03v3 L=0.28U W=1U AS=0.61P AD=0.61P PS=3.22U
+ PD=3.22U
M$345 \$258 \$259 \$265 vss nfet_03v3 L=0.28U W=1U AS=0.61P AD=0.61P PS=3.22U
+ PD=3.22U
M$346 \$266 RSTn vss vss nfet_03v3 L=0.28U W=1U AS=0.61P AD=0.61P PS=3.22U
+ PD=3.22U
M$347 \$267 \$258 \$266 vss nfet_03v3 L=0.28U W=1U AS=0.61P AD=0.61P PS=3.22U
+ PD=3.22U
M$348 \$268 \$267 \$258 vss nfet_03v3 L=0.28U W=1U AS=0.61P AD=0.61P PS=3.22U
+ PD=3.22U
M$349 vss \$257 \$268 vss nfet_03v3 L=0.28U W=1U AS=0.61P AD=0.61P PS=3.22U
+ PD=3.22U
M$350 Q10 \$267 vss vss nfet_03v3 L=0.28U W=1U AS=0.61P AD=0.61P PS=3.22U
+ PD=3.22U
M$351 \$270 \$267 vss vss nfet_03v3 L=0.28U W=1U AS=0.61P AD=0.61P PS=3.22U
+ PD=3.22U
M$352 Qb10 \$270 vss vss nfet_03v3 L=0.28U W=1U AS=0.61P AD=0.61P PS=3.22U
+ PD=3.22U