* Extracted by KLayout with GF180MCU LVS runset on : 16/04/2026 22:30

.SUBCKT quick_adder VDD Y15 A15 B15 GND B14 Y14 A14 BP3 Y13 A13 B13 A12 B12 Y12
+ A11 B11 Y11 B10 Y10 A10 BP2 BP0 Z A9 B9 Y9 A8 B8 F N Y8 A7 B7 Y7 A6 B6 Y6 BP1
+ Y5 A5 B5 A4 B4 Y4 Y3 A3 B3 A2 B2 Y2 Y1 A1 B1 B0 A0 Y0
M$1 VDD B15 \$4 VDD pfet_03v3 L=0.28U W=2U AS=1.09P AD=0.725P PS=5.09U PD=2.725U
M$2 \$4 A15 VDD VDD pfet_03v3 L=0.28U W=2U AS=0.725P AD=0.675P PS=2.725U
+ PD=2.675U
M$3 \$5 \$14 \$4 VDD pfet_03v3 L=0.28U W=2U AS=0.675P AD=0.725P PS=2.675U
+ PD=2.725U
M$4 \$4 \$15 \$5 VDD pfet_03v3 L=0.28U W=2U AS=0.725P AD=1.3P PS=2.725U PD=5.3U
M$5 VDD \$32 \$6 VDD pfet_03v3 L=0.28U W=2U AS=1.09P AD=0.725P PS=5.09U
+ PD=2.725U
M$6 \$6 \$5 VDD VDD pfet_03v3 L=0.28U W=2U AS=0.725P AD=0.675P PS=2.725U
+ PD=2.675U
M$7 \$7 \$19 \$6 VDD pfet_03v3 L=0.28U W=2U AS=0.675P AD=0.725P PS=2.675U
+ PD=2.725U
M$8 \$6 \$20 \$7 VDD pfet_03v3 L=0.28U W=2U AS=0.725P AD=1.3P PS=2.725U PD=5.3U
M$9 \$9 GND \$8 VDD pfet_03v3 L=0.28U W=2U AS=1.09P AD=0.725P PS=5.09U PD=2.725U
M$10 \$8 \$17 \$9 VDD pfet_03v3 L=0.28U W=2U AS=0.725P AD=0.675P PS=2.725U
+ PD=2.675U
M$11 VDD \$7 \$8 VDD pfet_03v3 L=0.28U W=2U AS=0.675P AD=0.725P PS=2.675U
+ PD=2.725U
M$12 \$8 \$21 VDD VDD pfet_03v3 L=0.28U W=2U AS=0.725P AD=1.3P PS=2.725U PD=5.3U
M$13 \$11 GND \$10 VDD pfet_03v3 L=0.28U W=2U AS=1.09P AD=0.725P PS=5.09U
+ PD=2.725U
M$14 \$10 \$5 \$11 VDD pfet_03v3 L=0.28U W=2U AS=0.725P AD=0.675P PS=2.725U
+ PD=2.675U
M$15 VDD \$1 \$10 VDD pfet_03v3 L=0.28U W=2U AS=0.675P AD=0.725P PS=2.675U
+ PD=2.725U
M$16 \$10 \$23 VDD VDD pfet_03v3 L=0.28U W=2U AS=0.725P AD=1.3P PS=2.725U
+ PD=5.3U
M$17 \$13 GND \$12 VDD pfet_03v3 L=0.28U W=2U AS=1.09P AD=0.725P PS=5.09U
+ PD=2.725U
M$18 \$12 \$24 \$13 VDD pfet_03v3 L=0.28U W=2U AS=0.725P AD=0.675P PS=2.725U
+ PD=2.675U
M$19 VDD \$22 \$12 VDD pfet_03v3 L=0.28U W=2U AS=0.675P AD=0.725P PS=2.675U
+ PD=2.725U
M$20 \$12 \$25 VDD VDD pfet_03v3 L=0.28U W=2U AS=0.725P AD=1.3P PS=2.725U
+ PD=5.3U
M$21 \$14 A15 VDD VDD pfet_03v3 L=0.28U W=1U AS=0.65P AD=0.63P PS=3.3U PD=3.26U
M$22 \$15 B15 VDD VDD pfet_03v3 L=0.28U W=1U AS=0.56P AD=0.65P PS=3.12U PD=3.3U
M$23 \$16 B15 VDD VDD pfet_03v3 L=0.28U W=1U AS=0.65P AD=0.42P PS=3.3U PD=1.84U
M$24 VDD A15 \$16 VDD pfet_03v3 L=0.28U W=1U AS=0.42P AD=0.735P PS=1.84U
+ PD=2.47U
M$25 \$17 \$16 VDD VDD pfet_03v3 L=0.28U W=1U AS=0.735P AD=0.65P PS=2.47U
+ PD=3.3U
M$26 \$45 \$5 VDD VDD pfet_03v3 L=0.28U W=2U AS=1.3P AD=0.725P PS=5.3U PD=2.725U
M$27 \$18 \$17 \$45 VDD pfet_03v3 L=0.28U W=2U AS=0.725P AD=1.3P PS=2.725U
+ PD=5.3U
M$28 \$19 \$5 VDD VDD pfet_03v3 L=0.28U W=1U AS=0.65P AD=0.63P PS=3.3U PD=3.26U
M$29 \$20 \$32 VDD VDD pfet_03v3 L=0.28U W=1U AS=0.56P AD=0.65P PS=3.12U PD=3.3U
M$30 \$21 GND VDD VDD pfet_03v3 L=0.28U W=1U AS=0.635P AD=0.65P PS=3.27U PD=3.3U
M$31 \$22 \$9 VDD VDD pfet_03v3 L=0.28U W=1U AS=0.53P AD=0.545P PS=3.06U
+ PD=3.09U
M$32 \$23 GND VDD VDD pfet_03v3 L=0.28U W=1U AS=0.48P AD=0.64P PS=2.96U PD=3.28U
M$33 \$24 \$11 VDD VDD pfet_03v3 L=0.28U W=1U AS=0.53P AD=0.545P PS=3.06U
+ PD=3.09U
M$34 \$25 GND VDD VDD pfet_03v3 L=0.28U W=1U AS=0.48P AD=0.64P PS=2.96U PD=3.28U
M$35 Y15 \$13 VDD VDD pfet_03v3 L=0.28U W=1U AS=0.53P AD=0.715P PS=3.06U
+ PD=3.43U
M$36 \$27 \$32 VDD VDD pfet_03v3 L=0.28U W=1U AS=0.65P AD=0.42P PS=3.3U PD=1.84U
M$37 VDD \$5 \$27 VDD pfet_03v3 L=0.28U W=1U AS=0.42P AD=0.735P PS=1.84U
+ PD=2.47U
M$38 \$28 \$27 VDD VDD pfet_03v3 L=0.28U W=1U AS=0.735P AD=0.65P PS=2.47U
+ PD=3.3U
M$39 \$40 \$28 VDD VDD pfet_03v3 L=0.28U W=2U AS=1.3P AD=0.725P PS=5.3U
+ PD=2.725U
M$40 \$29 \$17 \$40 VDD pfet_03v3 L=0.28U W=2U AS=0.725P AD=1.3P PS=2.725U
+ PD=5.3U
M$41 \$108 A14 VDD VDD pfet_03v3 L=0.28U W=1U AS=0.65P AD=0.63P PS=3.3U PD=3.26U
M$42 \$109 B14 VDD VDD pfet_03v3 L=0.28U W=1U AS=0.56P AD=0.65P PS=3.12U PD=3.3U
M$43 VDD B14 \$166 VDD pfet_03v3 L=0.28U W=2U AS=1.09P AD=0.725P PS=5.09U
+ PD=2.725U
M$44 \$166 A14 VDD VDD pfet_03v3 L=0.28U W=2U AS=0.725P AD=0.675P PS=2.725U
+ PD=2.675U
M$45 \$103 \$108 \$166 VDD pfet_03v3 L=0.28U W=2U AS=0.675P AD=0.725P PS=2.675U
+ PD=2.725U
M$46 \$166 \$109 \$103 VDD pfet_03v3 L=0.28U W=2U AS=0.725P AD=1.3P PS=2.725U
+ PD=5.3U
M$47 \$110 B14 VDD VDD pfet_03v3 L=0.28U W=1U AS=0.65P AD=0.42P PS=3.3U PD=1.84U
M$48 VDD A14 \$110 VDD pfet_03v3 L=0.28U W=1U AS=0.42P AD=0.735P PS=1.84U
+ PD=2.47U
M$49 \$111 \$110 VDD VDD pfet_03v3 L=0.28U W=1U AS=0.735P AD=0.65P PS=2.47U
+ PD=3.3U
M$50 \$177 \$103 VDD VDD pfet_03v3 L=0.28U W=2U AS=1.3P AD=0.725P PS=5.3U
+ PD=2.725U
M$51 \$112 \$111 \$177 VDD pfet_03v3 L=0.28U W=2U AS=0.725P AD=1.3P PS=2.725U
+ PD=5.3U
M$52 \$1 \$18 VDD VDD pfet_03v3 L=0.28U W=1U AS=0.675P AD=0.65P PS=3.35U PD=3.3U
M$53 \$113 \$112 VDD VDD pfet_03v3 L=0.28U W=1U AS=0.675P AD=0.65P PS=3.35U
+ PD=3.3U
M$54 \$114 \$103 VDD VDD pfet_03v3 L=0.28U W=1U AS=0.65P AD=0.63P PS=3.3U
+ PD=3.26U
M$55 \$115 \$66 VDD VDD pfet_03v3 L=0.28U W=1U AS=0.56P AD=0.65P PS=3.12U
+ PD=3.3U
M$56 VDD \$66 \$168 VDD pfet_03v3 L=0.28U W=2U AS=1.09P AD=0.725P PS=5.09U
+ PD=2.725U
M$57 \$168 \$103 VDD VDD pfet_03v3 L=0.28U W=2U AS=0.725P AD=0.675P PS=2.725U
+ PD=2.675U
M$58 \$104 \$114 \$168 VDD pfet_03v3 L=0.28U W=2U AS=0.675P AD=0.725P PS=2.675U
+ PD=2.725U
M$59 \$168 \$115 \$104 VDD pfet_03v3 L=0.28U W=2U AS=0.725P AD=1.3P PS=2.725U
+ PD=5.3U
M$60 \$116 GND VDD VDD pfet_03v3 L=0.28U W=1U AS=0.635P AD=0.65P PS=3.27U
+ PD=3.3U
M$61 \$105 GND \$169 VDD pfet_03v3 L=0.28U W=2U AS=1.09P AD=0.725P PS=5.09U
+ PD=2.725U
M$62 \$169 \$111 \$105 VDD pfet_03v3 L=0.28U W=2U AS=0.725P AD=0.675P PS=2.725U
+ PD=2.675U
M$63 VDD \$104 \$169 VDD pfet_03v3 L=0.28U W=2U AS=0.675P AD=0.725P PS=2.675U
+ PD=2.725U
M$64 \$169 \$116 VDD VDD pfet_03v3 L=0.28U W=2U AS=0.725P AD=1.3P PS=2.725U
+ PD=5.3U
M$65 \$67 \$105 VDD VDD pfet_03v3 L=0.28U W=1U AS=0.53P AD=0.545P PS=3.06U
+ PD=3.09U
M$66 \$117 GND VDD VDD pfet_03v3 L=0.28U W=1U AS=0.48P AD=0.64P PS=2.96U
+ PD=3.28U
M$67 \$106 GND \$170 VDD pfet_03v3 L=0.28U W=2U AS=1.09P AD=0.725P PS=5.09U
+ PD=2.725U
M$68 \$170 \$103 \$106 VDD pfet_03v3 L=0.28U W=2U AS=0.725P AD=0.675P PS=2.725U
+ PD=2.675U
M$69 VDD \$113 \$170 VDD pfet_03v3 L=0.28U W=2U AS=0.675P AD=0.725P PS=2.675U
+ PD=2.725U
M$70 \$170 \$117 VDD VDD pfet_03v3 L=0.28U W=2U AS=0.725P AD=1.3P PS=2.725U
+ PD=5.3U
M$71 \$118 \$106 VDD VDD pfet_03v3 L=0.28U W=1U AS=0.53P AD=0.545P PS=3.06U
+ PD=3.09U
M$72 \$119 GND VDD VDD pfet_03v3 L=0.28U W=1U AS=0.48P AD=0.64P PS=2.96U
+ PD=3.28U
M$73 \$107 GND \$171 VDD pfet_03v3 L=0.28U W=2U AS=1.09P AD=0.725P PS=5.09U
+ PD=2.725U
M$74 \$171 \$118 \$107 VDD pfet_03v3 L=0.28U W=2U AS=0.725P AD=0.675P PS=2.725U
+ PD=2.675U
M$75 VDD \$67 \$171 VDD pfet_03v3 L=0.28U W=2U AS=0.675P AD=0.725P PS=2.675U
+ PD=2.725U
M$76 \$171 \$119 VDD VDD pfet_03v3 L=0.28U W=2U AS=0.725P AD=1.3P PS=2.725U
+ PD=5.3U
M$77 Y14 \$107 VDD VDD pfet_03v3 L=0.28U W=1U AS=0.53P AD=0.715P PS=3.06U
+ PD=3.43U
M$78 \$121 \$66 VDD VDD pfet_03v3 L=0.28U W=1U AS=0.65P AD=0.42P PS=3.3U
+ PD=1.84U
M$79 VDD \$103 \$121 VDD pfet_03v3 L=0.28U W=1U AS=0.42P AD=0.735P PS=1.84U
+ PD=2.47U
M$80 \$122 \$121 VDD VDD pfet_03v3 L=0.28U W=1U AS=0.735P AD=0.65P PS=2.47U
+ PD=3.3U
M$81 \$189 \$122 VDD VDD pfet_03v3 L=0.28U W=2U AS=1.3P AD=0.725P PS=5.3U
+ PD=2.725U
M$82 \$123 \$111 \$189 VDD pfet_03v3 L=0.28U W=2U AS=0.725P AD=1.3P PS=2.725U
+ PD=5.3U
M$83 \$33 \$29 VDD VDD pfet_03v3 L=0.28U W=1U AS=0.675P AD=0.65P PS=3.35U
+ PD=3.3U
M$84 \$32 \$123 VDD VDD pfet_03v3 L=0.28U W=1U AS=0.675P AD=0.65P PS=3.35U
+ PD=3.3U
M$85 \$211 A13 VDD VDD pfet_03v3 L=0.28U W=1U AS=0.65P AD=0.63P PS=3.3U PD=3.26U
M$86 \$212 B13 VDD VDD pfet_03v3 L=0.28U W=1U AS=0.56P AD=0.65P PS=3.12U PD=3.3U
M$87 VDD B13 \$197 VDD pfet_03v3 L=0.28U W=2U AS=1.09P AD=0.725P PS=5.09U
+ PD=2.725U
M$88 \$197 A13 VDD VDD pfet_03v3 L=0.28U W=2U AS=0.725P AD=0.675P PS=2.725U
+ PD=2.675U
M$89 \$198 \$211 \$197 VDD pfet_03v3 L=0.28U W=2U AS=0.675P AD=0.725P PS=2.675U
+ PD=2.725U
M$90 \$197 \$212 \$198 VDD pfet_03v3 L=0.28U W=2U AS=0.725P AD=1.3P PS=2.725U
+ PD=5.3U
M$91 \$244 \$198 VDD VDD pfet_03v3 L=0.28U W=2U AS=1.3P AD=0.725P PS=5.3U
+ PD=2.725U
M$92 \$215 \$214 \$244 VDD pfet_03v3 L=0.28U W=2U AS=0.725P AD=1.3P PS=2.725U
+ PD=5.3U
M$93 \$216 \$198 VDD VDD pfet_03v3 L=0.28U W=1U AS=0.65P AD=0.63P PS=3.3U
+ PD=3.26U
M$94 \$217 \$232 VDD VDD pfet_03v3 L=0.28U W=1U AS=0.56P AD=0.65P PS=3.12U
+ PD=3.3U
M$95 VDD \$232 \$199 VDD pfet_03v3 L=0.28U W=2U AS=1.09P AD=0.725P PS=5.09U
+ PD=2.725U
M$96 \$199 \$198 VDD VDD pfet_03v3 L=0.28U W=2U AS=0.725P AD=0.675P PS=2.725U
+ PD=2.675U
M$97 \$200 \$216 \$199 VDD pfet_03v3 L=0.28U W=2U AS=0.675P AD=0.725P PS=2.675U
+ PD=2.725U
M$98 \$199 \$217 \$200 VDD pfet_03v3 L=0.28U W=2U AS=0.725P AD=1.3P PS=2.725U
+ PD=5.3U
M$99 \$218 GND VDD VDD pfet_03v3 L=0.28U W=1U AS=0.635P AD=0.65P PS=3.27U
+ PD=3.3U
M$100 \$202 GND \$201 VDD pfet_03v3 L=0.28U W=2U AS=1.09P AD=0.725P PS=5.09U
+ PD=2.725U
M$101 \$201 \$214 \$202 VDD pfet_03v3 L=0.28U W=2U AS=0.725P AD=0.675P
+ PS=2.725U PD=2.675U
M$102 VDD \$200 \$201 VDD pfet_03v3 L=0.28U W=2U AS=0.675P AD=0.725P PS=2.675U
+ PD=2.725U
M$103 \$201 \$218 VDD VDD pfet_03v3 L=0.28U W=2U AS=0.725P AD=1.3P PS=2.725U
+ PD=5.3U
M$104 \$219 \$202 VDD VDD pfet_03v3 L=0.28U W=1U AS=0.53P AD=0.545P PS=3.06U
+ PD=3.09U
M$105 \$220 GND VDD VDD pfet_03v3 L=0.28U W=1U AS=0.48P AD=0.64P PS=2.96U
+ PD=3.28U
M$106 \$204 GND \$203 VDD pfet_03v3 L=0.28U W=2U AS=1.09P AD=0.725P PS=5.09U
+ PD=2.725U
M$107 \$203 \$198 \$204 VDD pfet_03v3 L=0.28U W=2U AS=0.725P AD=0.675P
+ PS=2.725U PD=2.675U
M$108 VDD \$167 \$203 VDD pfet_03v3 L=0.28U W=2U AS=0.675P AD=0.725P PS=2.675U
+ PD=2.725U
M$109 \$203 \$220 VDD VDD pfet_03v3 L=0.28U W=2U AS=0.725P AD=1.3P PS=2.725U
+ PD=5.3U
M$110 \$221 \$204 VDD VDD pfet_03v3 L=0.28U W=1U AS=0.53P AD=0.545P PS=3.06U
+ PD=3.09U
M$111 \$222 GND VDD VDD pfet_03v3 L=0.28U W=1U AS=0.48P AD=0.64P PS=2.96U
+ PD=3.28U
M$112 \$206 GND \$205 VDD pfet_03v3 L=0.28U W=2U AS=1.09P AD=0.725P PS=5.09U
+ PD=2.725U
M$113 \$205 \$221 \$206 VDD pfet_03v3 L=0.28U W=2U AS=0.725P AD=0.675P
+ PS=2.725U PD=2.675U
M$114 VDD \$219 \$205 VDD pfet_03v3 L=0.28U W=2U AS=0.675P AD=0.725P PS=2.675U
+ PD=2.725U
M$115 \$205 \$222 VDD VDD pfet_03v3 L=0.28U W=2U AS=0.725P AD=1.3P PS=2.725U
+ PD=5.3U
M$116 Y13 \$206 VDD VDD pfet_03v3 L=0.28U W=1U AS=0.53P AD=0.715P PS=3.06U
+ PD=3.43U
M$117 \$251 \$225 VDD VDD pfet_03v3 L=0.28U W=2U AS=1.3P AD=0.725P PS=5.3U
+ PD=2.725U
M$118 \$226 \$214 \$251 VDD pfet_03v3 L=0.28U W=2U AS=0.725P AD=1.3P PS=2.725U
+ PD=5.3U
M$119 VDD \$208 BP3 VDD pfet_03v3 L=0.28U W=1U AS=0.65P AD=0.65P PS=3.3U PD=3.3U
M$120 VDD \$5 \$208 VDD pfet_03v3 L=0.28U W=1U AS=0.55P AD=0.38P PS=3.1U
+ PD=1.76U
M$121 \$208 \$103 VDD VDD pfet_03v3 L=0.28U W=1U AS=0.38P AD=0.38P PS=1.76U
+ PD=1.76U
M$122 VDD \$198 \$208 VDD pfet_03v3 L=0.28U W=1U AS=0.38P AD=0.38P PS=1.76U
+ PD=1.76U
M$123 \$208 \$317 VDD VDD pfet_03v3 L=0.28U W=1U AS=0.38P AD=0.65P PS=1.76U
+ PD=3.3U
M$124 \$227 BP3 VDD VDD pfet_03v3 L=0.28U W=1U AS=0.635P AD=0.65P PS=3.27U
+ PD=3.3U
M$125 \$210 BP3 \$209 VDD pfet_03v3 L=0.28U W=2U AS=1.09P AD=0.725P PS=5.09U
+ PD=2.725U
M$126 \$209 \$270 \$210 VDD pfet_03v3 L=0.28U W=2U AS=0.725P AD=0.675P
+ PS=2.725U PD=2.675U
M$127 VDD \$33 \$209 VDD pfet_03v3 L=0.28U W=2U AS=0.675P AD=0.725P PS=2.675U
+ PD=2.725U
M$128 \$209 \$227 VDD VDD pfet_03v3 L=0.28U W=2U AS=0.725P AD=1.3P PS=2.725U
+ PD=5.3U
M$129 \$824 \$210 VDD VDD pfet_03v3 L=0.28U W=1U AS=0.53P AD=0.545P PS=3.06U
+ PD=3.09U
M$130 \$324 A12 VDD VDD pfet_03v3 L=0.28U W=1U AS=0.65P AD=0.63P PS=3.3U
+ PD=3.26U
M$131 \$325 B12 VDD VDD pfet_03v3 L=0.28U W=1U AS=0.56P AD=0.65P PS=3.12U
+ PD=3.3U
M$132 VDD B12 \$379 VDD pfet_03v3 L=0.28U W=2U AS=1.09P AD=0.725P PS=5.09U
+ PD=2.725U
M$133 \$379 A12 VDD VDD pfet_03v3 L=0.28U W=2U AS=0.725P AD=0.675P PS=2.725U
+ PD=2.675U
M$134 \$317 \$324 \$379 VDD pfet_03v3 L=0.28U W=2U AS=0.675P AD=0.725P
+ PS=2.675U PD=2.725U
M$135 \$379 \$325 \$317 VDD pfet_03v3 L=0.28U W=2U AS=0.725P AD=1.3P PS=2.725U
+ PD=5.3U
M$136 \$213 B13 VDD VDD pfet_03v3 L=0.28U W=1U AS=0.65P AD=0.42P PS=3.3U
+ PD=1.84U
M$137 VDD A13 \$213 VDD pfet_03v3 L=0.28U W=1U AS=0.42P AD=0.735P PS=1.84U
+ PD=2.47U
M$138 \$214 \$213 VDD VDD pfet_03v3 L=0.28U W=1U AS=0.735P AD=0.65P PS=2.47U
+ PD=3.3U
M$139 \$318 B12 VDD VDD pfet_03v3 L=0.28U W=1U AS=0.65P AD=0.42P PS=3.3U
+ PD=1.84U
M$140 VDD A12 \$318 VDD pfet_03v3 L=0.28U W=1U AS=0.42P AD=0.735P PS=1.84U
+ PD=2.47U
M$141 \$326 \$318 VDD VDD pfet_03v3 L=0.28U W=1U AS=0.735P AD=0.65P PS=2.47U
+ PD=3.3U
M$142 \$407 \$317 VDD VDD pfet_03v3 L=0.28U W=2U AS=1.3P AD=0.725P PS=5.3U
+ PD=2.725U
M$143 \$327 \$326 \$407 VDD pfet_03v3 L=0.28U W=2U AS=0.725P AD=1.3P PS=2.725U
+ PD=5.3U
M$144 \$167 \$215 VDD VDD pfet_03v3 L=0.28U W=1U AS=0.675P AD=0.65P PS=3.35U
+ PD=3.3U
M$145 \$328 \$327 VDD VDD pfet_03v3 L=0.28U W=1U AS=0.675P AD=0.65P PS=3.35U
+ PD=3.3U
M$146 \$329 \$317 VDD VDD pfet_03v3 L=0.28U W=1U AS=0.65P AD=0.63P PS=3.3U
+ PD=3.26U
M$147 \$330 \$270 VDD VDD pfet_03v3 L=0.28U W=1U AS=0.56P AD=0.65P PS=3.12U
+ PD=3.3U
M$148 VDD \$270 \$380 VDD pfet_03v3 L=0.28U W=2U AS=1.09P AD=0.725P PS=5.09U
+ PD=2.725U
M$149 \$380 \$317 VDD VDD pfet_03v3 L=0.28U W=2U AS=0.725P AD=0.675P PS=2.725U
+ PD=2.675U
M$150 \$319 \$329 \$380 VDD pfet_03v3 L=0.28U W=2U AS=0.675P AD=0.725P
+ PS=2.675U PD=2.725U
M$151 \$380 \$330 \$319 VDD pfet_03v3 L=0.28U W=2U AS=0.725P AD=1.3P PS=2.725U
+ PD=5.3U
M$152 \$331 GND VDD VDD pfet_03v3 L=0.28U W=1U AS=0.635P AD=0.65P PS=3.27U
+ PD=3.3U
M$153 \$320 GND \$381 VDD pfet_03v3 L=0.28U W=2U AS=1.09P AD=0.725P PS=5.09U
+ PD=2.725U
M$154 \$381 \$326 \$320 VDD pfet_03v3 L=0.28U W=2U AS=0.725P AD=0.675P
+ PS=2.725U PD=2.675U
M$155 VDD \$319 \$381 VDD pfet_03v3 L=0.28U W=2U AS=0.675P AD=0.725P PS=2.675U
+ PD=2.725U
M$156 \$381 \$331 VDD VDD pfet_03v3 L=0.28U W=2U AS=0.725P AD=1.3P PS=2.725U
+ PD=5.3U
M$157 \$271 \$320 VDD VDD pfet_03v3 L=0.28U W=1U AS=0.53P AD=0.545P PS=3.06U
+ PD=3.09U
M$158 \$332 GND VDD VDD pfet_03v3 L=0.28U W=1U AS=0.48P AD=0.64P PS=2.96U
+ PD=3.28U
M$159 \$321 GND \$382 VDD pfet_03v3 L=0.28U W=2U AS=1.09P AD=0.725P PS=5.09U
+ PD=2.725U
M$160 \$382 \$317 \$321 VDD pfet_03v3 L=0.28U W=2U AS=0.725P AD=0.675P
+ PS=2.725U PD=2.675U
M$161 VDD \$328 \$382 VDD pfet_03v3 L=0.28U W=2U AS=0.675P AD=0.725P PS=2.675U
+ PD=2.725U
M$162 \$382 \$332 VDD VDD pfet_03v3 L=0.28U W=2U AS=0.725P AD=1.3P PS=2.725U
+ PD=5.3U
M$163 \$333 \$321 VDD VDD pfet_03v3 L=0.28U W=1U AS=0.53P AD=0.545P PS=3.06U
+ PD=3.09U
M$164 \$334 GND VDD VDD pfet_03v3 L=0.28U W=1U AS=0.48P AD=0.64P PS=2.96U
+ PD=3.28U
M$165 \$322 GND \$383 VDD pfet_03v3 L=0.28U W=2U AS=1.09P AD=0.725P PS=5.09U
+ PD=2.725U
M$166 \$383 \$333 \$322 VDD pfet_03v3 L=0.28U W=2U AS=0.725P AD=0.675P
+ PS=2.725U PD=2.675U
M$167 VDD \$271 \$383 VDD pfet_03v3 L=0.28U W=2U AS=0.675P AD=0.725P PS=2.675U
+ PD=2.725U
M$168 \$383 \$334 VDD VDD pfet_03v3 L=0.28U W=2U AS=0.725P AD=1.3P PS=2.725U
+ PD=5.3U
M$169 Y12 \$322 VDD VDD pfet_03v3 L=0.28U W=1U AS=0.53P AD=0.715P PS=3.06U
+ PD=3.43U
M$170 \$224 \$232 VDD VDD pfet_03v3 L=0.28U W=1U AS=0.65P AD=0.42P PS=3.3U
+ PD=1.84U
M$171 VDD \$198 \$224 VDD pfet_03v3 L=0.28U W=1U AS=0.42P AD=0.735P PS=1.84U
+ PD=2.47U
M$172 \$225 \$224 VDD VDD pfet_03v3 L=0.28U W=1U AS=0.735P AD=0.65P PS=2.47U
+ PD=3.3U
M$173 \$323 \$270 VDD VDD pfet_03v3 L=0.28U W=1U AS=0.65P AD=0.42P PS=3.3U
+ PD=1.84U
M$174 VDD \$317 \$323 VDD pfet_03v3 L=0.28U W=1U AS=0.42P AD=0.735P PS=1.84U
+ PD=2.47U
M$175 \$336 \$323 VDD VDD pfet_03v3 L=0.28U W=1U AS=0.735P AD=0.65P PS=2.47U
+ PD=3.3U
M$176 \$401 \$336 VDD VDD pfet_03v3 L=0.28U W=2U AS=1.3P AD=0.725P PS=5.3U
+ PD=2.725U
M$177 \$337 \$326 \$401 VDD pfet_03v3 L=0.28U W=2U AS=0.725P AD=1.3P PS=2.725U
+ PD=5.3U
M$178 \$66 \$226 VDD VDD pfet_03v3 L=0.28U W=1U AS=0.675P AD=0.65P PS=3.35U
+ PD=3.3U
M$179 \$232 \$337 VDD VDD pfet_03v3 L=0.28U W=1U AS=0.675P AD=0.65P PS=3.35U
+ PD=3.3U
M$180 \$424 A11 VDD VDD pfet_03v3 L=0.28U W=1U AS=0.65P AD=0.63P PS=3.3U
+ PD=3.26U
M$181 \$426 B11 VDD VDD pfet_03v3 L=0.28U W=1U AS=0.56P AD=0.65P PS=3.12U
+ PD=3.3U
M$182 VDD B11 \$384 VDD pfet_03v3 L=0.28U W=2U AS=1.09P AD=0.725P PS=5.09U
+ PD=2.725U
M$183 \$384 A11 VDD VDD pfet_03v3 L=0.28U W=2U AS=0.725P AD=0.675P PS=2.725U
+ PD=2.675U
M$184 \$385 \$424 \$384 VDD pfet_03v3 L=0.28U W=2U AS=0.675P AD=0.725P
+ PS=2.675U PD=2.725U
M$185 \$384 \$426 \$385 VDD pfet_03v3 L=0.28U W=2U AS=0.725P AD=1.3P PS=2.725U
+ PD=5.3U
M$186 \$427 B11 VDD VDD pfet_03v3 L=0.28U W=1U AS=0.65P AD=0.42P PS=3.3U
+ PD=1.84U
M$187 VDD A11 \$427 VDD pfet_03v3 L=0.28U W=1U AS=0.42P AD=0.735P PS=1.84U
+ PD=2.47U
M$188 \$428 \$427 VDD VDD pfet_03v3 L=0.28U W=1U AS=0.735P AD=0.65P PS=2.47U
+ PD=3.3U
M$189 \$450 \$385 VDD VDD pfet_03v3 L=0.28U W=2U AS=1.3P AD=0.725P PS=5.3U
+ PD=2.725U
M$190 \$386 \$428 \$450 VDD pfet_03v3 L=0.28U W=2U AS=0.725P AD=1.3P PS=2.725U
+ PD=5.3U
M$191 \$387 \$386 VDD VDD pfet_03v3 L=0.28U W=1U AS=0.675P AD=0.65P PS=3.35U
+ PD=3.3U
M$192 \$429 \$385 VDD VDD pfet_03v3 L=0.28U W=1U AS=0.65P AD=0.63P PS=3.3U
+ PD=3.26U
M$193 \$431 \$430 VDD VDD pfet_03v3 L=0.28U W=1U AS=0.56P AD=0.65P PS=3.12U
+ PD=3.3U
M$194 VDD \$430 \$388 VDD pfet_03v3 L=0.28U W=2U AS=1.09P AD=0.725P PS=5.09U
+ PD=2.725U
M$195 \$388 \$385 VDD VDD pfet_03v3 L=0.28U W=2U AS=0.725P AD=0.675P PS=2.725U
+ PD=2.675U
M$196 \$389 \$429 \$388 VDD pfet_03v3 L=0.28U W=2U AS=0.675P AD=0.725P
+ PS=2.675U PD=2.725U
M$197 \$388 \$431 \$389 VDD pfet_03v3 L=0.28U W=2U AS=0.725P AD=1.3P PS=2.725U
+ PD=5.3U
M$198 \$432 GND VDD VDD pfet_03v3 L=0.28U W=1U AS=0.635P AD=0.65P PS=3.27U
+ PD=3.3U
M$199 \$391 GND \$390 VDD pfet_03v3 L=0.28U W=2U AS=1.09P AD=0.725P PS=5.09U
+ PD=2.725U
M$200 \$390 \$428 \$391 VDD pfet_03v3 L=0.28U W=2U AS=0.725P AD=0.675P
+ PS=2.725U PD=2.675U
M$201 VDD \$389 \$390 VDD pfet_03v3 L=0.28U W=2U AS=0.675P AD=0.725P PS=2.675U
+ PD=2.725U
M$202 \$390 \$432 VDD VDD pfet_03v3 L=0.28U W=2U AS=0.725P AD=1.3P PS=2.725U
+ PD=5.3U
M$203 \$433 \$391 VDD VDD pfet_03v3 L=0.28U W=1U AS=0.53P AD=0.545P PS=3.06U
+ PD=3.09U
M$204 \$434 GND VDD VDD pfet_03v3 L=0.28U W=1U AS=0.48P AD=0.64P PS=2.96U
+ PD=3.28U
M$205 \$393 GND \$392 VDD pfet_03v3 L=0.28U W=2U AS=1.09P AD=0.725P PS=5.09U
+ PD=2.725U
M$206 \$392 \$385 \$393 VDD pfet_03v3 L=0.28U W=2U AS=0.725P AD=0.675P
+ PS=2.725U PD=2.675U
M$207 VDD \$387 \$392 VDD pfet_03v3 L=0.28U W=2U AS=0.675P AD=0.725P PS=2.675U
+ PD=2.725U
M$208 \$392 \$434 VDD VDD pfet_03v3 L=0.28U W=2U AS=0.725P AD=1.3P PS=2.725U
+ PD=5.3U
M$209 \$435 \$393 VDD VDD pfet_03v3 L=0.28U W=1U AS=0.53P AD=0.545P PS=3.06U
+ PD=3.09U
M$210 \$436 GND VDD VDD pfet_03v3 L=0.28U W=1U AS=0.48P AD=0.64P PS=2.96U
+ PD=3.28U
M$211 \$395 GND \$394 VDD pfet_03v3 L=0.28U W=2U AS=1.09P AD=0.725P PS=5.09U
+ PD=2.725U
M$212 \$394 \$435 \$395 VDD pfet_03v3 L=0.28U W=2U AS=0.725P AD=0.675P
+ PS=2.725U PD=2.675U
M$213 VDD \$433 \$394 VDD pfet_03v3 L=0.28U W=2U AS=0.675P AD=0.725P PS=2.675U
+ PD=2.725U
M$214 \$394 \$436 VDD VDD pfet_03v3 L=0.28U W=2U AS=0.725P AD=1.3P PS=2.725U
+ PD=5.3U
M$215 Y11 \$395 VDD VDD pfet_03v3 L=0.28U W=1U AS=0.53P AD=0.715P PS=3.06U
+ PD=3.43U
M$216 \$438 \$430 VDD VDD pfet_03v3 L=0.28U W=1U AS=0.65P AD=0.42P PS=3.3U
+ PD=1.84U
M$217 VDD \$385 \$438 VDD pfet_03v3 L=0.28U W=1U AS=0.42P AD=0.735P PS=1.84U
+ PD=2.47U
M$218 \$439 \$438 VDD VDD pfet_03v3 L=0.28U W=1U AS=0.735P AD=0.65P PS=2.47U
+ PD=3.3U
M$219 \$445 \$439 VDD VDD pfet_03v3 L=0.28U W=2U AS=1.3P AD=0.725P PS=5.3U
+ PD=2.725U
M$220 \$397 \$428 \$445 VDD pfet_03v3 L=0.28U W=2U AS=0.725P AD=1.3P PS=2.725U
+ PD=5.3U
M$221 \$440 \$397 VDD VDD pfet_03v3 L=0.28U W=1U AS=0.675P AD=0.65P PS=3.35U
+ PD=3.3U
M$222 \$509 A10 VDD VDD pfet_03v3 L=0.28U W=1U AS=0.65P AD=0.63P PS=3.3U
+ PD=3.26U
M$223 \$510 B10 VDD VDD pfet_03v3 L=0.28U W=1U AS=0.56P AD=0.65P PS=3.12U
+ PD=3.3U
M$224 VDD B10 \$572 VDD pfet_03v3 L=0.28U W=2U AS=1.09P AD=0.725P PS=5.09U
+ PD=2.725U
M$225 \$572 A10 VDD VDD pfet_03v3 L=0.28U W=2U AS=0.725P AD=0.675P PS=2.725U
+ PD=2.675U
M$226 \$511 \$509 \$572 VDD pfet_03v3 L=0.28U W=2U AS=0.675P AD=0.725P
+ PS=2.675U PD=2.725U
M$227 \$572 \$510 \$511 VDD pfet_03v3 L=0.28U W=2U AS=0.725P AD=1.3P PS=2.725U
+ PD=5.3U
M$228 \$512 B10 VDD VDD pfet_03v3 L=0.28U W=1U AS=0.65P AD=0.42P PS=3.3U
+ PD=1.84U
M$229 VDD A10 \$512 VDD pfet_03v3 L=0.28U W=1U AS=0.42P AD=0.735P PS=1.84U
+ PD=2.47U
M$230 \$513 \$512 VDD VDD pfet_03v3 L=0.28U W=1U AS=0.735P AD=0.65P PS=2.47U
+ PD=3.3U
M$231 \$589 \$511 VDD VDD pfet_03v3 L=0.28U W=2U AS=1.3P AD=0.725P PS=5.3U
+ PD=2.725U
M$232 \$514 \$513 \$589 VDD pfet_03v3 L=0.28U W=2U AS=0.725P AD=1.3P PS=2.725U
+ PD=5.3U
M$233 \$515 \$514 VDD VDD pfet_03v3 L=0.28U W=1U AS=0.675P AD=0.65P PS=3.35U
+ PD=3.3U
M$234 \$516 \$511 VDD VDD pfet_03v3 L=0.28U W=1U AS=0.65P AD=0.63P PS=3.3U
+ PD=3.26U
M$235 \$517 \$472 VDD VDD pfet_03v3 L=0.28U W=1U AS=0.56P AD=0.65P PS=3.12U
+ PD=3.3U
M$236 VDD \$472 \$573 VDD pfet_03v3 L=0.28U W=2U AS=1.09P AD=0.725P PS=5.09U
+ PD=2.725U
M$237 \$573 \$511 VDD VDD pfet_03v3 L=0.28U W=2U AS=0.725P AD=0.675P PS=2.725U
+ PD=2.675U
M$238 \$518 \$516 \$573 VDD pfet_03v3 L=0.28U W=2U AS=0.675P AD=0.725P
+ PS=2.675U PD=2.725U
M$239 \$573 \$517 \$518 VDD pfet_03v3 L=0.28U W=2U AS=0.725P AD=1.3P PS=2.725U
+ PD=5.3U
M$240 \$519 GND VDD VDD pfet_03v3 L=0.28U W=1U AS=0.635P AD=0.65P PS=3.27U
+ PD=3.3U
M$241 \$520 GND \$574 VDD pfet_03v3 L=0.28U W=2U AS=1.09P AD=0.725P PS=5.09U
+ PD=2.725U
M$242 \$574 \$513 \$520 VDD pfet_03v3 L=0.28U W=2U AS=0.725P AD=0.675P
+ PS=2.725U PD=2.675U
M$243 VDD \$518 \$574 VDD pfet_03v3 L=0.28U W=2U AS=0.675P AD=0.725P PS=2.675U
+ PD=2.725U
M$244 \$574 \$519 VDD VDD pfet_03v3 L=0.28U W=2U AS=0.725P AD=1.3P PS=2.725U
+ PD=5.3U
M$245 \$473 \$520 VDD VDD pfet_03v3 L=0.28U W=1U AS=0.53P AD=0.545P PS=3.06U
+ PD=3.09U
M$246 \$521 GND VDD VDD pfet_03v3 L=0.28U W=1U AS=0.48P AD=0.64P PS=2.96U
+ PD=3.28U
M$247 \$522 GND \$575 VDD pfet_03v3 L=0.28U W=2U AS=1.09P AD=0.725P PS=5.09U
+ PD=2.725U
M$248 \$575 \$511 \$522 VDD pfet_03v3 L=0.28U W=2U AS=0.725P AD=0.675P
+ PS=2.725U PD=2.675U
M$249 VDD \$515 \$575 VDD pfet_03v3 L=0.28U W=2U AS=0.675P AD=0.725P PS=2.675U
+ PD=2.725U
M$250 \$575 \$521 VDD VDD pfet_03v3 L=0.28U W=2U AS=0.725P AD=1.3P PS=2.725U
+ PD=5.3U
M$251 \$523 \$522 VDD VDD pfet_03v3 L=0.28U W=1U AS=0.53P AD=0.545P PS=3.06U
+ PD=3.09U
M$252 \$524 GND VDD VDD pfet_03v3 L=0.28U W=1U AS=0.48P AD=0.64P PS=2.96U
+ PD=3.28U
M$253 \$525 GND \$576 VDD pfet_03v3 L=0.28U W=2U AS=1.09P AD=0.725P PS=5.09U
+ PD=2.725U
M$254 \$576 \$523 \$525 VDD pfet_03v3 L=0.28U W=2U AS=0.725P AD=0.675P
+ PS=2.725U PD=2.675U
M$255 VDD \$473 \$576 VDD pfet_03v3 L=0.28U W=2U AS=0.675P AD=0.725P PS=2.675U
+ PD=2.725U
M$256 \$576 \$524 VDD VDD pfet_03v3 L=0.28U W=2U AS=0.725P AD=1.3P PS=2.725U
+ PD=5.3U
M$257 Y10 \$525 VDD VDD pfet_03v3 L=0.28U W=1U AS=0.53P AD=0.715P PS=3.06U
+ PD=3.43U
M$258 \$527 \$472 VDD VDD pfet_03v3 L=0.28U W=1U AS=0.65P AD=0.42P PS=3.3U
+ PD=1.84U
M$259 VDD \$511 \$527 VDD pfet_03v3 L=0.28U W=1U AS=0.42P AD=0.735P PS=1.84U
+ PD=2.47U
M$260 \$528 \$527 VDD VDD pfet_03v3 L=0.28U W=1U AS=0.735P AD=0.65P PS=2.47U
+ PD=3.3U
M$261 \$605 \$528 VDD VDD pfet_03v3 L=0.28U W=2U AS=1.3P AD=0.725P PS=5.3U
+ PD=2.725U
M$262 \$529 \$513 \$605 VDD pfet_03v3 L=0.28U W=2U AS=0.725P AD=1.3P PS=2.725U
+ PD=5.3U
M$263 \$430 \$529 VDD VDD pfet_03v3 L=0.28U W=1U AS=0.675P AD=0.65P PS=3.35U
+ PD=3.3U
M$264 \$630 A9 VDD VDD pfet_03v3 L=0.28U W=1U AS=0.65P AD=0.63P PS=3.3U PD=3.26U
M$265 \$632 B9 VDD VDD pfet_03v3 L=0.28U W=1U AS=0.56P AD=0.65P PS=3.12U PD=3.3U
M$266 VDD B9 \$612 VDD pfet_03v3 L=0.28U W=2U AS=1.09P AD=0.725P PS=5.09U
+ PD=2.725U
M$267 \$612 A9 VDD VDD pfet_03v3 L=0.28U W=2U AS=0.725P AD=0.675P PS=2.725U
+ PD=2.675U
M$268 \$613 \$630 \$612 VDD pfet_03v3 L=0.28U W=2U AS=0.675P AD=0.725P
+ PS=2.675U PD=2.725U
M$269 \$612 \$632 \$613 VDD pfet_03v3 L=0.28U W=2U AS=0.725P AD=1.3P PS=2.725U
+ PD=5.3U
M$270 \$655 \$613 VDD VDD pfet_03v3 L=0.28U W=2U AS=1.3P AD=0.725P PS=5.3U
+ PD=2.725U
M$271 \$614 \$634 \$655 VDD pfet_03v3 L=0.28U W=2U AS=0.725P AD=1.3P PS=2.725U
+ PD=5.3U
M$272 \$635 \$613 VDD VDD pfet_03v3 L=0.28U W=1U AS=0.65P AD=0.63P PS=3.3U
+ PD=3.26U
M$273 \$637 \$636 VDD VDD pfet_03v3 L=0.28U W=1U AS=0.56P AD=0.65P PS=3.12U
+ PD=3.3U
M$274 VDD \$636 \$615 VDD pfet_03v3 L=0.28U W=2U AS=1.09P AD=0.725P PS=5.09U
+ PD=2.725U
M$275 \$615 \$613 VDD VDD pfet_03v3 L=0.28U W=2U AS=0.725P AD=0.675P PS=2.725U
+ PD=2.675U
M$276 \$616 \$635 \$615 VDD pfet_03v3 L=0.28U W=2U AS=0.675P AD=0.725P
+ PS=2.675U PD=2.725U
M$277 \$615 \$637 \$616 VDD pfet_03v3 L=0.28U W=2U AS=0.725P AD=1.3P PS=2.725U
+ PD=5.3U
M$278 \$638 GND VDD VDD pfet_03v3 L=0.28U W=1U AS=0.635P AD=0.65P PS=3.27U
+ PD=3.3U
M$279 \$618 GND \$617 VDD pfet_03v3 L=0.28U W=2U AS=1.09P AD=0.725P PS=5.09U
+ PD=2.725U
M$280 \$617 \$634 \$618 VDD pfet_03v3 L=0.28U W=2U AS=0.725P AD=0.675P
+ PS=2.725U PD=2.675U
M$281 VDD \$616 \$617 VDD pfet_03v3 L=0.28U W=2U AS=0.675P AD=0.725P PS=2.675U
+ PD=2.725U
M$282 \$617 \$638 VDD VDD pfet_03v3 L=0.28U W=2U AS=0.725P AD=1.3P PS=2.725U
+ PD=5.3U
M$283 \$639 \$618 VDD VDD pfet_03v3 L=0.28U W=1U AS=0.53P AD=0.545P PS=3.06U
+ PD=3.09U
M$284 \$640 GND VDD VDD pfet_03v3 L=0.28U W=1U AS=0.48P AD=0.64P PS=2.96U
+ PD=3.28U
M$285 \$620 GND \$619 VDD pfet_03v3 L=0.28U W=2U AS=1.09P AD=0.725P PS=5.09U
+ PD=2.725U
M$286 \$619 \$613 \$620 VDD pfet_03v3 L=0.28U W=2U AS=0.725P AD=0.675P
+ PS=2.725U PD=2.675U
M$287 VDD \$578 \$619 VDD pfet_03v3 L=0.28U W=2U AS=0.675P AD=0.725P PS=2.675U
+ PD=2.725U
M$288 \$619 \$640 VDD VDD pfet_03v3 L=0.28U W=2U AS=0.725P AD=1.3P PS=2.725U
+ PD=5.3U
M$289 \$641 \$620 VDD VDD pfet_03v3 L=0.28U W=1U AS=0.53P AD=0.545P PS=3.06U
+ PD=3.09U
M$290 \$642 GND VDD VDD pfet_03v3 L=0.28U W=1U AS=0.48P AD=0.64P PS=2.96U
+ PD=3.28U
M$291 \$622 GND \$621 VDD pfet_03v3 L=0.28U W=2U AS=1.09P AD=0.725P PS=5.09U
+ PD=2.725U
M$292 \$621 \$641 \$622 VDD pfet_03v3 L=0.28U W=2U AS=0.725P AD=0.675P
+ PS=2.725U PD=2.675U
M$293 VDD \$639 \$621 VDD pfet_03v3 L=0.28U W=2U AS=0.675P AD=0.725P PS=2.675U
+ PD=2.725U
M$294 \$621 \$642 VDD VDD pfet_03v3 L=0.28U W=2U AS=0.725P AD=1.3P PS=2.725U
+ PD=5.3U
M$295 Y9 \$622 VDD VDD pfet_03v3 L=0.28U W=1U AS=0.53P AD=0.715P PS=3.06U
+ PD=3.43U
M$296 \$676 \$645 VDD VDD pfet_03v3 L=0.28U W=2U AS=1.3P AD=0.725P PS=5.3U
+ PD=2.725U
M$297 \$623 \$634 \$676 VDD pfet_03v3 L=0.28U W=2U AS=0.725P AD=1.3P PS=2.725U
+ PD=5.3U
M$298 VDD \$624 BP2 VDD pfet_03v3 L=0.28U W=1U AS=0.65P AD=0.65P PS=3.3U PD=3.3U
M$299 VDD \$385 \$624 VDD pfet_03v3 L=0.28U W=1U AS=0.55P AD=0.38P PS=3.1U
+ PD=1.76U
M$300 \$624 \$511 VDD VDD pfet_03v3 L=0.28U W=1U AS=0.38P AD=0.38P PS=1.76U
+ PD=1.76U
M$301 VDD \$613 \$624 VDD pfet_03v3 L=0.28U W=1U AS=0.38P AD=0.38P PS=1.76U
+ PD=1.76U
M$302 \$624 \$736 VDD VDD pfet_03v3 L=0.28U W=1U AS=0.38P AD=0.65P PS=1.76U
+ PD=3.3U
M$303 \$646 BP2 VDD VDD pfet_03v3 L=0.28U W=1U AS=0.635P AD=0.65P PS=3.27U
+ PD=3.3U
M$304 \$626 BP2 \$625 VDD pfet_03v3 L=0.28U W=2U AS=1.09P AD=0.725P PS=5.09U
+ PD=2.725U
M$305 \$625 \$685 \$626 VDD pfet_03v3 L=0.28U W=2U AS=0.725P AD=0.675P
+ PS=2.725U PD=2.675U
M$306 VDD \$440 \$625 VDD pfet_03v3 L=0.28U W=2U AS=0.675P AD=0.725P PS=2.675U
+ PD=2.725U
M$307 \$625 \$646 VDD VDD pfet_03v3 L=0.28U W=2U AS=0.725P AD=1.3P PS=2.725U
+ PD=5.3U
M$308 \$270 \$626 VDD VDD pfet_03v3 L=0.28U W=1U AS=0.53P AD=0.545P PS=3.06U
+ PD=3.09U
M$309 VDD BP3 \$579 VDD pfet_03v3 L=0.28U W=1U AS=0.65P AD=0.38P PS=3.3U
+ PD=1.76U
M$310 \$579 BP2 VDD VDD pfet_03v3 L=0.28U W=1U AS=0.38P AD=0.38P PS=1.76U
+ PD=1.76U
M$311 VDD BP1 \$579 VDD pfet_03v3 L=0.28U W=1U AS=0.38P AD=0.38P PS=1.76U
+ PD=1.76U
M$312 \$579 BP0 VDD VDD pfet_03v3 L=0.28U W=1U AS=0.38P AD=0.55P PS=1.76U
+ PD=3.1U
M$313 Z \$579 VDD VDD pfet_03v3 L=0.28U W=1U AS=0.65P AD=0.65P PS=3.3U PD=3.3U
M$314 \$734 A8 VDD VDD pfet_03v3 L=0.28U W=1U AS=0.65P AD=0.63P PS=3.3U PD=3.26U
M$315 \$735 B8 VDD VDD pfet_03v3 L=0.28U W=1U AS=0.56P AD=0.65P PS=3.12U PD=3.3U
M$316 VDD B8 \$804 VDD pfet_03v3 L=0.28U W=2U AS=1.09P AD=0.725P PS=5.09U
+ PD=2.725U
M$317 \$804 A8 VDD VDD pfet_03v3 L=0.28U W=2U AS=0.725P AD=0.675P PS=2.725U
+ PD=2.675U
M$318 \$736 \$734 \$804 VDD pfet_03v3 L=0.28U W=2U AS=0.675P AD=0.725P
+ PS=2.675U PD=2.725U
M$319 \$804 \$735 \$736 VDD pfet_03v3 L=0.28U W=2U AS=0.725P AD=1.3P PS=2.725U
+ PD=5.3U
M$320 \$633 B9 VDD VDD pfet_03v3 L=0.28U W=1U AS=0.65P AD=0.42P PS=3.3U PD=1.84U
M$321 VDD A9 \$633 VDD pfet_03v3 L=0.28U W=1U AS=0.42P AD=0.735P PS=1.84U
+ PD=2.47U
M$322 \$634 \$633 VDD VDD pfet_03v3 L=0.28U W=1U AS=0.735P AD=0.65P PS=2.47U
+ PD=3.3U
M$323 \$737 B8 VDD VDD pfet_03v3 L=0.28U W=1U AS=0.65P AD=0.42P PS=3.3U PD=1.84U
M$324 VDD A8 \$737 VDD pfet_03v3 L=0.28U W=1U AS=0.42P AD=0.735P PS=1.84U
+ PD=2.47U
M$325 \$738 \$737 VDD VDD pfet_03v3 L=0.28U W=1U AS=0.735P AD=0.65P PS=2.47U
+ PD=3.3U
M$326 \$837 \$736 VDD VDD pfet_03v3 L=0.28U W=2U AS=1.3P AD=0.725P PS=5.3U
+ PD=2.725U
M$327 \$739 \$738 \$837 VDD pfet_03v3 L=0.28U W=2U AS=0.725P AD=1.3P PS=2.725U
+ PD=5.3U
M$328 \$578 \$614 VDD VDD pfet_03v3 L=0.28U W=1U AS=0.675P AD=0.65P PS=3.35U
+ PD=3.3U
M$329 \$740 \$739 VDD VDD pfet_03v3 L=0.28U W=1U AS=0.675P AD=0.65P PS=3.35U
+ PD=3.3U
M$330 \$741 \$736 VDD VDD pfet_03v3 L=0.28U W=1U AS=0.65P AD=0.63P PS=3.3U
+ PD=3.26U
M$331 \$742 \$685 VDD VDD pfet_03v3 L=0.28U W=1U AS=0.56P AD=0.65P PS=3.12U
+ PD=3.3U
M$332 VDD \$685 \$805 VDD pfet_03v3 L=0.28U W=2U AS=1.09P AD=0.725P PS=5.09U
+ PD=2.725U
M$333 \$805 \$736 VDD VDD pfet_03v3 L=0.28U W=2U AS=0.725P AD=0.675P PS=2.725U
+ PD=2.675U
M$334 \$743 \$741 \$805 VDD pfet_03v3 L=0.28U W=2U AS=0.675P AD=0.725P
+ PS=2.675U PD=2.725U
M$335 \$805 \$742 \$743 VDD pfet_03v3 L=0.28U W=2U AS=0.725P AD=1.3P PS=2.725U
+ PD=5.3U
M$336 \$744 GND VDD VDD pfet_03v3 L=0.28U W=1U AS=0.635P AD=0.65P PS=3.27U
+ PD=3.3U
M$337 \$745 GND \$806 VDD pfet_03v3 L=0.28U W=2U AS=1.09P AD=0.725P PS=5.09U
+ PD=2.725U
M$338 \$806 \$738 \$745 VDD pfet_03v3 L=0.28U W=2U AS=0.725P AD=0.675P
+ PS=2.725U PD=2.675U
M$339 VDD \$743 \$806 VDD pfet_03v3 L=0.28U W=2U AS=0.675P AD=0.725P PS=2.675U
+ PD=2.725U
M$340 \$806 \$744 VDD VDD pfet_03v3 L=0.28U W=2U AS=0.725P AD=1.3P PS=2.725U
+ PD=5.3U
M$341 \$686 \$745 VDD VDD pfet_03v3 L=0.28U W=1U AS=0.53P AD=0.545P PS=3.06U