* Extracted by KLayout with GF180MCU LVS runset on : 16/04/2026 22:21

.SUBCKT ALU VDD S0 Y15 A15 B15 S1 GND B14 Y14 A14 BP3 Y13 A13 B13 A12 B12 Y12
+ A11 B11 Y11 B10 Y10 A10 BP2 BP0 Z A9 B9 Y9 B8 N Y8 A8 F A7 B7 Y7 B6 A6 Y6 BP1
+ Y5 A5 B5 B4 Y4 A4 Y3 A3 B3 A2 B2 Y2 Y1 A1 B1 A0 B0 Cin Y0
M$1 VDD B15 \$4 VDD pfet_03v3 L=0.28U W=2U AS=1.09P AD=0.725P PS=5.09U PD=2.725U
M$2 \$4 A15 VDD VDD pfet_03v3 L=0.28U W=2U AS=0.725P AD=0.675P PS=2.725U
+ PD=2.675U
M$3 \$5 \$15 \$4 VDD pfet_03v3 L=0.28U W=2U AS=0.675P AD=0.725P PS=2.675U
+ PD=2.725U
M$4 \$4 \$16 \$5 VDD pfet_03v3 L=0.28U W=2U AS=0.725P AD=1.3P PS=2.725U PD=5.3U
M$5 VDD \$33 \$6 VDD pfet_03v3 L=0.28U W=2U AS=1.09P AD=0.725P PS=5.09U
+ PD=2.725U
M$6 \$6 \$5 VDD VDD pfet_03v3 L=0.28U W=2U AS=0.725P AD=0.675P PS=2.725U
+ PD=2.675U
M$7 \$7 \$20 \$6 VDD pfet_03v3 L=0.28U W=2U AS=0.675P AD=0.725P PS=2.675U
+ PD=2.725U
M$8 \$6 \$21 \$7 VDD pfet_03v3 L=0.28U W=2U AS=0.725P AD=1.3P PS=2.725U PD=5.3U
M$9 \$10 S0 \$9 VDD pfet_03v3 L=0.28U W=2U AS=1.09P AD=0.725P PS=5.09U PD=2.725U
M$10 \$9 \$18 \$10 VDD pfet_03v3 L=0.28U W=2U AS=0.725P AD=0.675P PS=2.725U
+ PD=2.675U
M$11 VDD \$7 \$9 VDD pfet_03v3 L=0.28U W=2U AS=0.675P AD=0.725P PS=2.675U
+ PD=2.725U
M$12 \$9 \$22 VDD VDD pfet_03v3 L=0.28U W=2U AS=0.725P AD=1.3P PS=2.725U PD=5.3U
M$13 \$12 S0 \$11 VDD pfet_03v3 L=0.28U W=2U AS=1.09P AD=0.725P PS=5.09U
+ PD=2.725U
M$14 \$11 \$5 \$12 VDD pfet_03v3 L=0.28U W=2U AS=0.725P AD=0.675P PS=2.725U
+ PD=2.675U
M$15 VDD \$1 \$11 VDD pfet_03v3 L=0.28U W=2U AS=0.675P AD=0.725P PS=2.675U
+ PD=2.725U
M$16 \$11 \$24 VDD VDD pfet_03v3 L=0.28U W=2U AS=0.725P AD=1.3P PS=2.725U
+ PD=5.3U
M$17 \$14 S1 \$13 VDD pfet_03v3 L=0.28U W=2U AS=1.09P AD=0.725P PS=5.09U
+ PD=2.725U
M$18 \$13 \$25 \$14 VDD pfet_03v3 L=0.28U W=2U AS=0.725P AD=0.675P PS=2.725U
+ PD=2.675U
M$19 VDD \$23 \$13 VDD pfet_03v3 L=0.28U W=2U AS=0.675P AD=0.725P PS=2.675U
+ PD=2.725U
M$20 \$13 \$26 VDD VDD pfet_03v3 L=0.28U W=2U AS=0.725P AD=1.3P PS=2.725U
+ PD=5.3U
M$21 \$15 A15 VDD VDD pfet_03v3 L=0.28U W=1U AS=0.65P AD=0.63P PS=3.3U PD=3.26U
M$22 \$16 B15 VDD VDD pfet_03v3 L=0.28U W=1U AS=0.56P AD=0.65P PS=3.12U PD=3.3U
M$23 \$17 B15 VDD VDD pfet_03v3 L=0.28U W=1U AS=0.65P AD=0.42P PS=3.3U PD=1.84U
M$24 VDD A15 \$17 VDD pfet_03v3 L=0.28U W=1U AS=0.42P AD=0.735P PS=1.84U
+ PD=2.47U
M$25 \$18 \$17 VDD VDD pfet_03v3 L=0.28U W=1U AS=0.735P AD=0.65P PS=2.47U
+ PD=3.3U
M$26 \$47 \$5 VDD VDD pfet_03v3 L=0.28U W=2U AS=1.3P AD=0.725P PS=5.3U PD=2.725U
M$27 \$19 \$18 \$47 VDD pfet_03v3 L=0.28U W=2U AS=0.725P AD=1.3P PS=2.725U
+ PD=5.3U
M$28 \$20 \$5 VDD VDD pfet_03v3 L=0.28U W=1U AS=0.65P AD=0.63P PS=3.3U PD=3.26U
M$29 \$21 \$33 VDD VDD pfet_03v3 L=0.28U W=1U AS=0.56P AD=0.65P PS=3.12U PD=3.3U
M$30 \$22 S0 VDD VDD pfet_03v3 L=0.28U W=1U AS=0.635P AD=0.65P PS=3.27U PD=3.3U
M$31 \$23 \$10 VDD VDD pfet_03v3 L=0.28U W=1U AS=0.53P AD=0.545P PS=3.06U
+ PD=3.09U
M$32 \$24 S0 VDD VDD pfet_03v3 L=0.28U W=1U AS=0.48P AD=0.64P PS=2.96U PD=3.28U
M$33 \$25 \$12 VDD VDD pfet_03v3 L=0.28U W=1U AS=0.53P AD=0.545P PS=3.06U
+ PD=3.09U
M$34 \$26 S1 VDD VDD pfet_03v3 L=0.28U W=1U AS=0.48P AD=0.64P PS=2.96U PD=3.28U
M$35 Y15 \$14 VDD VDD pfet_03v3 L=0.28U W=1U AS=0.53P AD=0.715P PS=3.06U
+ PD=3.43U
M$36 \$28 \$33 VDD VDD pfet_03v3 L=0.28U W=1U AS=0.65P AD=0.42P PS=3.3U PD=1.84U
M$37 VDD \$5 \$28 VDD pfet_03v3 L=0.28U W=1U AS=0.42P AD=0.735P PS=1.84U
+ PD=2.47U
M$38 \$29 \$28 VDD VDD pfet_03v3 L=0.28U W=1U AS=0.735P AD=0.65P PS=2.47U
+ PD=3.3U
M$39 \$42 \$29 VDD VDD pfet_03v3 L=0.28U W=2U AS=1.3P AD=0.725P PS=5.3U
+ PD=2.725U
M$40 \$30 \$18 \$42 VDD pfet_03v3 L=0.28U W=2U AS=0.725P AD=1.3P PS=2.725U
+ PD=5.3U
M$41 \$110 A14 VDD VDD pfet_03v3 L=0.28U W=1U AS=0.65P AD=0.63P PS=3.3U PD=3.26U
M$42 \$111 B14 VDD VDD pfet_03v3 L=0.28U W=1U AS=0.56P AD=0.65P PS=3.12U PD=3.3U
M$43 VDD B14 \$168 VDD pfet_03v3 L=0.28U W=2U AS=1.09P AD=0.725P PS=5.09U
+ PD=2.725U
M$44 \$168 A14 VDD VDD pfet_03v3 L=0.28U W=2U AS=0.725P AD=0.675P PS=2.725U
+ PD=2.675U
M$45 \$105 \$110 \$168 VDD pfet_03v3 L=0.28U W=2U AS=0.675P AD=0.725P PS=2.675U
+ PD=2.725U
M$46 \$168 \$111 \$105 VDD pfet_03v3 L=0.28U W=2U AS=0.725P AD=1.3P PS=2.725U
+ PD=5.3U
M$47 \$112 B14 VDD VDD pfet_03v3 L=0.28U W=1U AS=0.65P AD=0.42P PS=3.3U PD=1.84U
M$48 VDD A14 \$112 VDD pfet_03v3 L=0.28U W=1U AS=0.42P AD=0.735P PS=1.84U
+ PD=2.47U
M$49 \$113 \$112 VDD VDD pfet_03v3 L=0.28U W=1U AS=0.735P AD=0.65P PS=2.47U
+ PD=3.3U
M$50 \$179 \$105 VDD VDD pfet_03v3 L=0.28U W=2U AS=1.3P AD=0.725P PS=5.3U
+ PD=2.725U
M$51 \$114 \$113 \$179 VDD pfet_03v3 L=0.28U W=2U AS=0.725P AD=1.3P PS=2.725U
+ PD=5.3U
M$52 \$1 \$19 VDD VDD pfet_03v3 L=0.28U W=1U AS=0.675P AD=0.65P PS=3.35U PD=3.3U
M$53 \$115 \$114 VDD VDD pfet_03v3 L=0.28U W=1U AS=0.675P AD=0.65P PS=3.35U
+ PD=3.3U
M$54 \$116 \$105 VDD VDD pfet_03v3 L=0.28U W=1U AS=0.65P AD=0.63P PS=3.3U
+ PD=3.26U
M$55 \$117 \$68 VDD VDD pfet_03v3 L=0.28U W=1U AS=0.56P AD=0.65P PS=3.12U
+ PD=3.3U
M$56 VDD \$68 \$170 VDD pfet_03v3 L=0.28U W=2U AS=1.09P AD=0.725P PS=5.09U
+ PD=2.725U
M$57 \$170 \$105 VDD VDD pfet_03v3 L=0.28U W=2U AS=0.725P AD=0.675P PS=2.725U
+ PD=2.675U
M$58 \$106 \$116 \$170 VDD pfet_03v3 L=0.28U W=2U AS=0.675P AD=0.725P PS=2.675U
+ PD=2.725U
M$59 \$170 \$117 \$106 VDD pfet_03v3 L=0.28U W=2U AS=0.725P AD=1.3P PS=2.725U
+ PD=5.3U
M$60 \$118 S0 VDD VDD pfet_03v3 L=0.28U W=1U AS=0.635P AD=0.65P PS=3.27U PD=3.3U
M$61 \$107 S0 \$171 VDD pfet_03v3 L=0.28U W=2U AS=1.09P AD=0.725P PS=5.09U
+ PD=2.725U
M$62 \$171 \$113 \$107 VDD pfet_03v3 L=0.28U W=2U AS=0.725P AD=0.675P PS=2.725U
+ PD=2.675U
M$63 VDD \$106 \$171 VDD pfet_03v3 L=0.28U W=2U AS=0.675P AD=0.725P PS=2.675U
+ PD=2.725U
M$64 \$171 \$118 VDD VDD pfet_03v3 L=0.28U W=2U AS=0.725P AD=1.3P PS=2.725U
+ PD=5.3U
M$65 \$69 \$107 VDD VDD pfet_03v3 L=0.28U W=1U AS=0.53P AD=0.545P PS=3.06U
+ PD=3.09U
M$66 \$119 S0 VDD VDD pfet_03v3 L=0.28U W=1U AS=0.48P AD=0.64P PS=2.96U PD=3.28U
M$67 \$108 S0 \$172 VDD pfet_03v3 L=0.28U W=2U AS=1.09P AD=0.725P PS=5.09U
+ PD=2.725U
M$68 \$172 \$105 \$108 VDD pfet_03v3 L=0.28U W=2U AS=0.725P AD=0.675P PS=2.725U
+ PD=2.675U
M$69 VDD \$115 \$172 VDD pfet_03v3 L=0.28U W=2U AS=0.675P AD=0.725P PS=2.675U
+ PD=2.725U
M$70 \$172 \$119 VDD VDD pfet_03v3 L=0.28U W=2U AS=0.725P AD=1.3P PS=2.725U
+ PD=5.3U
M$71 \$120 \$108 VDD VDD pfet_03v3 L=0.28U W=1U AS=0.53P AD=0.545P PS=3.06U
+ PD=3.09U
M$72 \$121 S1 VDD VDD pfet_03v3 L=0.28U W=1U AS=0.48P AD=0.64P PS=2.96U PD=3.28U
M$73 \$109 S1 \$173 VDD pfet_03v3 L=0.28U W=2U AS=1.09P AD=0.725P PS=5.09U
+ PD=2.725U
M$74 \$173 \$120 \$109 VDD pfet_03v3 L=0.28U W=2U AS=0.725P AD=0.675P PS=2.725U
+ PD=2.675U
M$75 VDD \$69 \$173 VDD pfet_03v3 L=0.28U W=2U AS=0.675P AD=0.725P PS=2.675U
+ PD=2.725U
M$76 \$173 \$121 VDD VDD pfet_03v3 L=0.28U W=2U AS=0.725P AD=1.3P PS=2.725U
+ PD=5.3U
M$77 Y14 \$109 VDD VDD pfet_03v3 L=0.28U W=1U AS=0.53P AD=0.715P PS=3.06U
+ PD=3.43U
M$78 \$123 \$68 VDD VDD pfet_03v3 L=0.28U W=1U AS=0.65P AD=0.42P PS=3.3U
+ PD=1.84U
M$79 VDD \$105 \$123 VDD pfet_03v3 L=0.28U W=1U AS=0.42P AD=0.735P PS=1.84U
+ PD=2.47U
M$80 \$124 \$123 VDD VDD pfet_03v3 L=0.28U W=1U AS=0.735P AD=0.65P PS=2.47U
+ PD=3.3U
M$81 \$191 \$124 VDD VDD pfet_03v3 L=0.28U W=2U AS=1.3P AD=0.725P PS=5.3U
+ PD=2.725U
M$82 \$125 \$113 \$191 VDD pfet_03v3 L=0.28U W=2U AS=0.725P AD=1.3P PS=2.725U
+ PD=5.3U
M$83 \$35 \$30 VDD VDD pfet_03v3 L=0.28U W=1U AS=0.675P AD=0.65P PS=3.35U
+ PD=3.3U
M$84 \$33 \$125 VDD VDD pfet_03v3 L=0.28U W=1U AS=0.675P AD=0.65P PS=3.35U
+ PD=3.3U
M$85 \$213 A13 VDD VDD pfet_03v3 L=0.28U W=1U AS=0.65P AD=0.63P PS=3.3U PD=3.26U
M$86 \$214 B13 VDD VDD pfet_03v3 L=0.28U W=1U AS=0.56P AD=0.65P PS=3.12U PD=3.3U
M$87 VDD B13 \$199 VDD pfet_03v3 L=0.28U W=2U AS=1.09P AD=0.725P PS=5.09U
+ PD=2.725U
M$88 \$199 A13 VDD VDD pfet_03v3 L=0.28U W=2U AS=0.725P AD=0.675P PS=2.725U
+ PD=2.675U
M$89 \$200 \$213 \$199 VDD pfet_03v3 L=0.28U W=2U AS=0.675P AD=0.725P PS=2.675U
+ PD=2.725U
M$90 \$199 \$214 \$200 VDD pfet_03v3 L=0.28U W=2U AS=0.725P AD=1.3P PS=2.725U
+ PD=5.3U
M$91 \$246 \$200 VDD VDD pfet_03v3 L=0.28U W=2U AS=1.3P AD=0.725P PS=5.3U
+ PD=2.725U
M$92 \$217 \$216 \$246 VDD pfet_03v3 L=0.28U W=2U AS=0.725P AD=1.3P PS=2.725U
+ PD=5.3U
M$93 \$218 \$200 VDD VDD pfet_03v3 L=0.28U W=1U AS=0.65P AD=0.63P PS=3.3U
+ PD=3.26U
M$94 \$219 \$234 VDD VDD pfet_03v3 L=0.28U W=1U AS=0.56P AD=0.65P PS=3.12U
+ PD=3.3U
M$95 VDD \$234 \$201 VDD pfet_03v3 L=0.28U W=2U AS=1.09P AD=0.725P PS=5.09U
+ PD=2.725U
M$96 \$201 \$200 VDD VDD pfet_03v3 L=0.28U W=2U AS=0.725P AD=0.675P PS=2.725U
+ PD=2.675U
M$97 \$202 \$218 \$201 VDD pfet_03v3 L=0.28U W=2U AS=0.675P AD=0.725P PS=2.675U
+ PD=2.725U
M$98 \$201 \$219 \$202 VDD pfet_03v3 L=0.28U W=2U AS=0.725P AD=1.3P PS=2.725U
+ PD=5.3U
M$99 \$220 S0 VDD VDD pfet_03v3 L=0.28U W=1U AS=0.635P AD=0.65P PS=3.27U PD=3.3U
M$100 \$204 S0 \$203 VDD pfet_03v3 L=0.28U W=2U AS=1.09P AD=0.725P PS=5.09U
+ PD=2.725U
M$101 \$203 \$216 \$204 VDD pfet_03v3 L=0.28U W=2U AS=0.725P AD=0.675P
+ PS=2.725U PD=2.675U
M$102 VDD \$202 \$203 VDD pfet_03v3 L=0.28U W=2U AS=0.675P AD=0.725P PS=2.675U
+ PD=2.725U
M$103 \$203 \$220 VDD VDD pfet_03v3 L=0.28U W=2U AS=0.725P AD=1.3P PS=2.725U
+ PD=5.3U
M$104 \$221 \$204 VDD VDD pfet_03v3 L=0.28U W=1U AS=0.53P AD=0.545P PS=3.06U
+ PD=3.09U
M$105 \$222 S0 VDD VDD pfet_03v3 L=0.28U W=1U AS=0.48P AD=0.64P PS=2.96U
+ PD=3.28U
M$106 \$206 S0 \$205 VDD pfet_03v3 L=0.28U W=2U AS=1.09P AD=0.725P PS=5.09U
+ PD=2.725U
M$107 \$205 \$200 \$206 VDD pfet_03v3 L=0.28U W=2U AS=0.725P AD=0.675P
+ PS=2.725U PD=2.675U
M$108 VDD \$169 \$205 VDD pfet_03v3 L=0.28U W=2U AS=0.675P AD=0.725P PS=2.675U
+ PD=2.725U
M$109 \$205 \$222 VDD VDD pfet_03v3 L=0.28U W=2U AS=0.725P AD=1.3P PS=2.725U
+ PD=5.3U
M$110 \$223 \$206 VDD VDD pfet_03v3 L=0.28U W=1U AS=0.53P AD=0.545P PS=3.06U
+ PD=3.09U
M$111 \$224 S1 VDD VDD pfet_03v3 L=0.28U W=1U AS=0.48P AD=0.64P PS=2.96U
+ PD=3.28U
M$112 \$208 S1 \$207 VDD pfet_03v3 L=0.28U W=2U AS=1.09P AD=0.725P PS=5.09U
+ PD=2.725U
M$113 \$207 \$223 \$208 VDD pfet_03v3 L=0.28U W=2U AS=0.725P AD=0.675P
+ PS=2.725U PD=2.675U
M$114 VDD \$221 \$207 VDD pfet_03v3 L=0.28U W=2U AS=0.675P AD=0.725P PS=2.675U
+ PD=2.725U
M$115 \$207 \$224 VDD VDD pfet_03v3 L=0.28U W=2U AS=0.725P AD=1.3P PS=2.725U
+ PD=5.3U
M$116 Y13 \$208 VDD VDD pfet_03v3 L=0.28U W=1U AS=0.53P AD=0.715P PS=3.06U
+ PD=3.43U
M$117 \$253 \$227 VDD VDD pfet_03v3 L=0.28U W=2U AS=1.3P AD=0.725P PS=5.3U
+ PD=2.725U
M$118 \$228 \$216 \$253 VDD pfet_03v3 L=0.28U W=2U AS=0.725P AD=1.3P PS=2.725U
+ PD=5.3U
M$119 VDD \$210 BP3 VDD pfet_03v3 L=0.28U W=1U AS=0.65P AD=0.65P PS=3.3U PD=3.3U
M$120 VDD \$5 \$210 VDD pfet_03v3 L=0.28U W=1U AS=0.55P AD=0.38P PS=3.1U
+ PD=1.76U
M$121 \$210 \$105 VDD VDD pfet_03v3 L=0.28U W=1U AS=0.38P AD=0.38P PS=1.76U
+ PD=1.76U
M$122 VDD \$200 \$210 VDD pfet_03v3 L=0.28U W=1U AS=0.38P AD=0.38P PS=1.76U
+ PD=1.76U
M$123 \$210 \$319 VDD VDD pfet_03v3 L=0.28U W=1U AS=0.38P AD=0.65P PS=1.76U
+ PD=3.3U
M$124 \$229 BP3 VDD VDD pfet_03v3 L=0.28U W=1U AS=0.635P AD=0.65P PS=3.27U
+ PD=3.3U
M$125 \$212 BP3 \$211 VDD pfet_03v3 L=0.28U W=2U AS=1.09P AD=0.725P PS=5.09U
+ PD=2.725U
M$126 \$211 \$272 \$212 VDD pfet_03v3 L=0.28U W=2U AS=0.725P AD=0.675P
+ PS=2.725U PD=2.675U
M$127 VDD \$35 \$211 VDD pfet_03v3 L=0.28U W=2U AS=0.675P AD=0.725P PS=2.675U
+ PD=2.725U
M$128 \$211 \$229 VDD VDD pfet_03v3 L=0.28U W=2U AS=0.725P AD=1.3P PS=2.725U
+ PD=5.3U
M$129 \$826 \$212 VDD VDD pfet_03v3 L=0.28U W=1U AS=0.53P AD=0.545P PS=3.06U
+ PD=3.09U
M$130 \$326 A12 VDD VDD pfet_03v3 L=0.28U W=1U AS=0.65P AD=0.63P PS=3.3U
+ PD=3.26U
M$131 \$327 B12 VDD VDD pfet_03v3 L=0.28U W=1U AS=0.56P AD=0.65P PS=3.12U
+ PD=3.3U
M$132 VDD B12 \$381 VDD pfet_03v3 L=0.28U W=2U AS=1.09P AD=0.725P PS=5.09U
+ PD=2.725U
M$133 \$381 A12 VDD VDD pfet_03v3 L=0.28U W=2U AS=0.725P AD=0.675P PS=2.725U
+ PD=2.675U
M$134 \$319 \$326 \$381 VDD pfet_03v3 L=0.28U W=2U AS=0.675P AD=0.725P
+ PS=2.675U PD=2.725U
M$135 \$381 \$327 \$319 VDD pfet_03v3 L=0.28U W=2U AS=0.725P AD=1.3P PS=2.725U
+ PD=5.3U
M$136 \$215 B13 VDD VDD pfet_03v3 L=0.28U W=1U AS=0.65P AD=0.42P PS=3.3U
+ PD=1.84U
M$137 VDD A13 \$215 VDD pfet_03v3 L=0.28U W=1U AS=0.42P AD=0.735P PS=1.84U
+ PD=2.47U
M$138 \$216 \$215 VDD VDD pfet_03v3 L=0.28U W=1U AS=0.735P AD=0.65P PS=2.47U
+ PD=3.3U
M$139 \$320 B12 VDD VDD pfet_03v3 L=0.28U W=1U AS=0.65P AD=0.42P PS=3.3U
+ PD=1.84U
M$140 VDD A12 \$320 VDD pfet_03v3 L=0.28U W=1U AS=0.42P AD=0.735P PS=1.84U
+ PD=2.47U
M$141 \$328 \$320 VDD VDD pfet_03v3 L=0.28U W=1U AS=0.735P AD=0.65P PS=2.47U
+ PD=3.3U
M$142 \$409 \$319 VDD VDD pfet_03v3 L=0.28U W=2U AS=1.3P AD=0.725P PS=5.3U
+ PD=2.725U
M$143 \$329 \$328 \$409 VDD pfet_03v3 L=0.28U W=2U AS=0.725P AD=1.3P PS=2.725U
+ PD=5.3U
M$144 \$169 \$217 VDD VDD pfet_03v3 L=0.28U W=1U AS=0.675P AD=0.65P PS=3.35U
+ PD=3.3U
M$145 \$330 \$329 VDD VDD pfet_03v3 L=0.28U W=1U AS=0.675P AD=0.65P PS=3.35U
+ PD=3.3U
M$146 \$331 \$319 VDD VDD pfet_03v3 L=0.28U W=1U AS=0.65P AD=0.63P PS=3.3U
+ PD=3.26U
M$147 \$332 \$272 VDD VDD pfet_03v3 L=0.28U W=1U AS=0.56P AD=0.65P PS=3.12U
+ PD=3.3U
M$148 VDD \$272 \$382 VDD pfet_03v3 L=0.28U W=2U AS=1.09P AD=0.725P PS=5.09U
+ PD=2.725U
M$149 \$382 \$319 VDD VDD pfet_03v3 L=0.28U W=2U AS=0.725P AD=0.675P PS=2.725U
+ PD=2.675U
M$150 \$321 \$331 \$382 VDD pfet_03v3 L=0.28U W=2U AS=0.675P AD=0.725P
+ PS=2.675U PD=2.725U
M$151 \$382 \$332 \$321 VDD pfet_03v3 L=0.28U W=2U AS=0.725P AD=1.3P PS=2.725U
+ PD=5.3U
M$152 \$333 S0 VDD VDD pfet_03v3 L=0.28U W=1U AS=0.635P AD=0.65P PS=3.27U
+ PD=3.3U
M$153 \$322 S0 \$383 VDD pfet_03v3 L=0.28U W=2U AS=1.09P AD=0.725P PS=5.09U
+ PD=2.725U
M$154 \$383 \$328 \$322 VDD pfet_03v3 L=0.28U W=2U AS=0.725P AD=0.675P
+ PS=2.725U PD=2.675U
M$155 VDD \$321 \$383 VDD pfet_03v3 L=0.28U W=2U AS=0.675P AD=0.725P PS=2.675U
+ PD=2.725U
M$156 \$383 \$333 VDD VDD pfet_03v3 L=0.28U W=2U AS=0.725P AD=1.3P PS=2.725U
+ PD=5.3U
M$157 \$273 \$322 VDD VDD pfet_03v3 L=0.28U W=1U AS=0.53P AD=0.545P PS=3.06U
+ PD=3.09U
M$158 \$334 S0 VDD VDD pfet_03v3 L=0.28U W=1U AS=0.48P AD=0.64P PS=2.96U
+ PD=3.28U
M$159 \$323 S0 \$384 VDD pfet_03v3 L=0.28U W=2U AS=1.09P AD=0.725P PS=5.09U
+ PD=2.725U
M$160 \$384 \$319 \$323 VDD pfet_03v3 L=0.28U W=2U AS=0.725P AD=0.675P
+ PS=2.725U PD=2.675U
M$161 VDD \$330 \$384 VDD pfet_03v3 L=0.28U W=2U AS=0.675P AD=0.725P PS=2.675U
+ PD=2.725U
M$162 \$384 \$334 VDD VDD pfet_03v3 L=0.28U W=2U AS=0.725P AD=1.3P PS=2.725U
+ PD=5.3U
M$163 \$335 \$323 VDD VDD pfet_03v3 L=0.28U W=1U AS=0.53P AD=0.545P PS=3.06U
+ PD=3.09U
M$164 \$336 S1 VDD VDD pfet_03v3 L=0.28U W=1U AS=0.48P AD=0.64P PS=2.96U
+ PD=3.28U
M$165 \$324 S1 \$385 VDD pfet_03v3 L=0.28U W=2U AS=1.09P AD=0.725P PS=5.09U
+ PD=2.725U
M$166 \$385 \$335 \$324 VDD pfet_03v3 L=0.28U W=2U AS=0.725P AD=0.675P
+ PS=2.725U PD=2.675U
M$167 VDD \$273 \$385 VDD pfet_03v3 L=0.28U W=2U AS=0.675P AD=0.725P PS=2.675U
+ PD=2.725U
M$168 \$385 \$336 VDD VDD pfet_03v3 L=0.28U W=2U AS=0.725P AD=1.3P PS=2.725U
+ PD=5.3U
M$169 Y12 \$324 VDD VDD pfet_03v3 L=0.28U W=1U AS=0.53P AD=0.715P PS=3.06U
+ PD=3.43U
M$170 \$226 \$234 VDD VDD pfet_03v3 L=0.28U W=1U AS=0.65P AD=0.42P PS=3.3U
+ PD=1.84U
M$171 VDD \$200 \$226 VDD pfet_03v3 L=0.28U W=1U AS=0.42P AD=0.735P PS=1.84U
+ PD=2.47U
M$172 \$227 \$226 VDD VDD pfet_03v3 L=0.28U W=1U AS=0.735P AD=0.65P PS=2.47U
+ PD=3.3U
M$173 \$325 \$272 VDD VDD pfet_03v3 L=0.28U W=1U AS=0.65P AD=0.42P PS=3.3U
+ PD=1.84U
M$174 VDD \$319 \$325 VDD pfet_03v3 L=0.28U W=1U AS=0.42P AD=0.735P PS=1.84U
+ PD=2.47U
M$175 \$338 \$325 VDD VDD pfet_03v3 L=0.28U W=1U AS=0.735P AD=0.65P PS=2.47U
+ PD=3.3U
M$176 \$403 \$338 VDD VDD pfet_03v3 L=0.28U W=2U AS=1.3P AD=0.725P PS=5.3U
+ PD=2.725U
M$177 \$339 \$328 \$403 VDD pfet_03v3 L=0.28U W=2U AS=0.725P AD=1.3P PS=2.725U
+ PD=5.3U
M$178 \$68 \$228 VDD VDD pfet_03v3 L=0.28U W=1U AS=0.675P AD=0.65P PS=3.35U
+ PD=3.3U
M$179 \$234 \$339 VDD VDD pfet_03v3 L=0.28U W=1U AS=0.675P AD=0.65P PS=3.35U
+ PD=3.3U
M$180 \$426 A11 VDD VDD pfet_03v3 L=0.28U W=1U AS=0.65P AD=0.63P PS=3.3U
+ PD=3.26U
M$181 \$428 B11 VDD VDD pfet_03v3 L=0.28U W=1U AS=0.56P AD=0.65P PS=3.12U
+ PD=3.3U
M$182 VDD B11 \$386 VDD pfet_03v3 L=0.28U W=2U AS=1.09P AD=0.725P PS=5.09U
+ PD=2.725U
M$183 \$386 A11 VDD VDD pfet_03v3 L=0.28U W=2U AS=0.725P AD=0.675P PS=2.725U
+ PD=2.675U
M$184 \$387 \$426 \$386 VDD pfet_03v3 L=0.28U W=2U AS=0.675P AD=0.725P
+ PS=2.675U PD=2.725U
M$185 \$386 \$428 \$387 VDD pfet_03v3 L=0.28U W=2U AS=0.725P AD=1.3P PS=2.725U
+ PD=5.3U
M$186 \$429 B11 VDD VDD pfet_03v3 L=0.28U W=1U AS=0.65P AD=0.42P PS=3.3U
+ PD=1.84U
M$187 VDD A11 \$429 VDD pfet_03v3 L=0.28U W=1U AS=0.42P AD=0.735P PS=1.84U
+ PD=2.47U
M$188 \$430 \$429 VDD VDD pfet_03v3 L=0.28U W=1U AS=0.735P AD=0.65P PS=2.47U
+ PD=3.3U
M$189 \$453 \$387 VDD VDD pfet_03v3 L=0.28U W=2U AS=1.3P AD=0.725P PS=5.3U
+ PD=2.725U
M$190 \$388 \$430 \$453 VDD pfet_03v3 L=0.28U W=2U AS=0.725P AD=1.3P PS=2.725U
+ PD=5.3U
M$191 \$389 \$388 VDD VDD pfet_03v3 L=0.28U W=1U AS=0.675P AD=0.65P PS=3.35U
+ PD=3.3U
M$192 \$431 \$387 VDD VDD pfet_03v3 L=0.28U W=1U AS=0.65P AD=0.63P PS=3.3U
+ PD=3.26U
M$193 \$433 \$432 VDD VDD pfet_03v3 L=0.28U W=1U AS=0.56P AD=0.65P PS=3.12U
+ PD=3.3U
M$194 VDD \$432 \$390 VDD pfet_03v3 L=0.28U W=2U AS=1.09P AD=0.725P PS=5.09U
+ PD=2.725U
M$195 \$390 \$387 VDD VDD pfet_03v3 L=0.28U W=2U AS=0.725P AD=0.675P PS=2.725U
+ PD=2.675U
M$196 \$391 \$431 \$390 VDD pfet_03v3 L=0.28U W=2U AS=0.675P AD=0.725P
+ PS=2.675U PD=2.725U
M$197 \$390 \$433 \$391 VDD pfet_03v3 L=0.28U W=2U AS=0.725P AD=1.3P PS=2.725U
+ PD=5.3U
M$198 \$434 S0 VDD VDD pfet_03v3 L=0.28U W=1U AS=0.635P AD=0.65P PS=3.27U
+ PD=3.3U
M$199 \$393 S0 \$392 VDD pfet_03v3 L=0.28U W=2U AS=1.09P AD=0.725P PS=5.09U
+ PD=2.725U
M$200 \$392 \$430 \$393 VDD pfet_03v3 L=0.28U W=2U AS=0.725P AD=0.675P
+ PS=2.725U PD=2.675U
M$201 VDD \$391 \$392 VDD pfet_03v3 L=0.28U W=2U AS=0.675P AD=0.725P PS=2.675U
+ PD=2.725U
M$202 \$392 \$434 VDD VDD pfet_03v3 L=0.28U W=2U AS=0.725P AD=1.3P PS=2.725U
+ PD=5.3U
M$203 \$435 \$393 VDD VDD pfet_03v3 L=0.28U W=1U AS=0.53P AD=0.545P PS=3.06U
+ PD=3.09U
M$204 \$436 S0 VDD VDD pfet_03v3 L=0.28U W=1U AS=0.48P AD=0.64P PS=2.96U
+ PD=3.28U
M$205 \$395 S0 \$394 VDD pfet_03v3 L=0.28U W=2U AS=1.09P AD=0.725P PS=5.09U
+ PD=2.725U
M$206 \$394 \$387 \$395 VDD pfet_03v3 L=0.28U W=2U AS=0.725P AD=0.675P
+ PS=2.725U PD=2.675U
M$207 VDD \$389 \$394 VDD pfet_03v3 L=0.28U W=2U AS=0.675P AD=0.725P PS=2.675U
+ PD=2.725U
M$208 \$394 \$436 VDD VDD pfet_03v3 L=0.28U W=2U AS=0.725P AD=1.3P PS=2.725U
+ PD=5.3U
M$209 \$437 \$395 VDD VDD pfet_03v3 L=0.28U W=1U AS=0.53P AD=0.545P PS=3.06U
+ PD=3.09U
M$210 \$438 S1 VDD VDD pfet_03v3 L=0.28U W=1U AS=0.48P AD=0.64P PS=2.96U
+ PD=3.28U
M$211 \$397 S1 \$396 VDD pfet_03v3 L=0.28U W=2U AS=1.09P AD=0.725P PS=5.09U
+ PD=2.725U
M$212 \$396 \$437 \$397 VDD pfet_03v3 L=0.28U W=2U AS=0.725P AD=0.675P
+ PS=2.725U PD=2.675U
M$213 VDD \$435 \$396 VDD pfet_03v3 L=0.28U W=2U AS=0.675P AD=0.725P PS=2.675U
+ PD=2.725U
M$214 \$396 \$438 VDD VDD pfet_03v3 L=0.28U W=2U AS=0.725P AD=1.3P PS=2.725U
+ PD=5.3U
M$215 Y11 \$397 VDD VDD pfet_03v3 L=0.28U W=1U AS=0.53P AD=0.715P PS=3.06U
+ PD=3.43U
M$216 \$440 \$432 VDD VDD pfet_03v3 L=0.28U W=1U AS=0.65P AD=0.42P PS=3.3U
+ PD=1.84U
M$217 VDD \$387 \$440 VDD pfet_03v3 L=0.28U W=1U AS=0.42P AD=0.735P PS=1.84U
+ PD=2.47U
M$218 \$441 \$440 VDD VDD pfet_03v3 L=0.28U W=1U AS=0.735P AD=0.65P PS=2.47U
+ PD=3.3U
M$219 \$447 \$441 VDD VDD pfet_03v3 L=0.28U W=2U AS=1.3P AD=0.725P PS=5.3U
+ PD=2.725U
M$220 \$399 \$430 \$447 VDD pfet_03v3 L=0.28U W=2U AS=0.725P AD=1.3P PS=2.725U
+ PD=5.3U
M$221 \$442 \$399 VDD VDD pfet_03v3 L=0.28U W=1U AS=0.675P AD=0.65P PS=3.35U
+ PD=3.3U
M$222 \$511 A10 VDD VDD pfet_03v3 L=0.28U W=1U AS=0.65P AD=0.63P PS=3.3U
+ PD=3.26U
M$223 \$512 B10 VDD VDD pfet_03v3 L=0.28U W=1U AS=0.56P AD=0.65P PS=3.12U
+ PD=3.3U
M$224 VDD B10 \$574 VDD pfet_03v3 L=0.28U W=2U AS=1.09P AD=0.725P PS=5.09U
+ PD=2.725U
M$225 \$574 A10 VDD VDD pfet_03v3 L=0.28U W=2U AS=0.725P AD=0.675P PS=2.725U
+ PD=2.675U
M$226 \$513 \$511 \$574 VDD pfet_03v3 L=0.28U W=2U AS=0.675P AD=0.725P
+ PS=2.675U PD=2.725U
M$227 \$574 \$512 \$513 VDD pfet_03v3 L=0.28U W=2U AS=0.725P AD=1.3P PS=2.725U
+ PD=5.3U
M$228 \$514 B10 VDD VDD pfet_03v3 L=0.28U W=1U AS=0.65P AD=0.42P PS=3.3U
+ PD=1.84U
M$229 VDD A10 \$514 VDD pfet_03v3 L=0.28U W=1U AS=0.42P AD=0.735P PS=1.84U
+ PD=2.47U
M$230 \$515 \$514 VDD VDD pfet_03v3 L=0.28U W=1U AS=0.735P AD=0.65P PS=2.47U
+ PD=3.3U
M$231 \$592 \$513 VDD VDD pfet_03v3 L=0.28U W=2U AS=1.3P AD=0.725P PS=5.3U
+ PD=2.725U
M$232 \$516 \$515 \$592 VDD pfet_03v3 L=0.28U W=2U AS=0.725P AD=1.3P PS=2.725U
+ PD=5.3U
M$233 \$517 \$516 VDD VDD pfet_03v3 L=0.28U W=1U AS=0.675P AD=0.65P PS=3.35U
+ PD=3.3U
M$234 \$518 \$513 VDD VDD pfet_03v3 L=0.28U W=1U AS=0.65P AD=0.63P PS=3.3U
+ PD=3.26U
M$235 \$519 \$474 VDD VDD pfet_03v3 L=0.28U W=1U AS=0.56P AD=0.65P PS=3.12U
+ PD=3.3U
M$236 VDD \$474 \$575 VDD pfet_03v3 L=0.28U W=2U AS=1.09P AD=0.725P PS=5.09U
+ PD=2.725U
M$237 \$575 \$513 VDD VDD pfet_03v3 L=0.28U W=2U AS=0.725P AD=0.675P PS=2.725U
+ PD=2.675U
M$238 \$520 \$518 \$575 VDD pfet_03v3 L=0.28U W=2U AS=0.675P AD=0.725P
+ PS=2.675U PD=2.725U
M$239 \$575 \$519 \$520 VDD pfet_03v3 L=0.28U W=2U AS=0.725P AD=1.3P PS=2.725U
+ PD=5.3U
M$240 \$521 S0 VDD VDD pfet_03v3 L=0.28U W=1U AS=0.635P AD=0.65P PS=3.27U
+ PD=3.3U
M$241 \$522 S0 \$576 VDD pfet_03v3 L=0.28U W=2U AS=1.09P AD=0.725P PS=5.09U
+ PD=2.725U
M$242 \$576 \$515 \$522 VDD pfet_03v3 L=0.28U W=2U AS=0.725P AD=0.675P
+ PS=2.725U PD=2.675U
M$243 VDD \$520 \$576 VDD pfet_03v3 L=0.28U W=2U AS=0.675P AD=0.725P PS=2.675U
+ PD=2.725U
M$244 \$576 \$521 VDD VDD pfet_03v3 L=0.28U W=2U AS=0.725P AD=1.3P PS=2.725U
+ PD=5.3U
M$245 \$475 \$522 VDD VDD pfet_03v3 L=0.28U W=1U AS=0.53P AD=0.545P PS=3.06U
+ PD=3.09U
M$246 \$523 S0 VDD VDD pfet_03v3 L=0.28U W=1U AS=0.48P AD=0.64P PS=2.96U
+ PD=3.28U
M$247 \$524 S0 \$577 VDD pfet_03v3 L=0.28U W=2U AS=1.09P AD=0.725P PS=5.09U
+ PD=2.725U
M$248 \$577 \$513 \$524 VDD pfet_03v3 L=0.28U W=2U AS=0.725P AD=0.675P
+ PS=2.725U PD=2.675U
M$249 VDD \$517 \$577 VDD pfet_03v3 L=0.28U W=2U AS=0.675P AD=0.725P PS=2.675U
+ PD=2.725U
M$250 \$577 \$523 VDD VDD pfet_03v3 L=0.28U W=2U AS=0.725P AD=1.3P PS=2.725U
+ PD=5.3U
M$251 \$525 \$524 VDD VDD pfet_03v3 L=0.28U W=1U AS=0.53P AD=0.545P PS=3.06U
+ PD=3.09U
M$252 \$526 S1 VDD VDD pfet_03v3 L=0.28U W=1U AS=0.48P AD=0.64P PS=2.96U
+ PD=3.28U
M$253 \$527 S1 \$578 VDD pfet_03v3 L=0.28U W=2U AS=1.09P AD=0.725P PS=5.09U
+ PD=2.725U
M$254 \$578 \$525 \$527 VDD pfet_03v3 L=0.28U W=2U AS=0.725P AD=0.675P
+ PS=2.725U PD=2.675U
M$255 VDD \$475 \$578 VDD pfet_03v3 L=0.28U W=2U AS=0.675P AD=0.725P PS=2.675U
+ PD=2.725U
M$256 \$578 \$526 VDD VDD pfet_03v3 L=0.28U W=2U AS=0.725P AD=1.3P PS=2.725U
+ PD=5.3U
M$257 Y10 \$527 VDD VDD pfet_03v3 L=0.28U W=1U AS=0.53P AD=0.715P PS=3.06U
+ PD=3.43U
M$258 \$529 \$474 VDD VDD pfet_03v3 L=0.28U W=1U AS=0.65P AD=0.42P PS=3.3U
+ PD=1.84U
M$259 VDD \$513 \$529 VDD pfet_03v3 L=0.28U W=1U AS=0.42P AD=0.735P PS=1.84U
+ PD=2.47U
M$260 \$530 \$529 VDD VDD pfet_03v3 L=0.28U W=1U AS=0.735P AD=0.65P PS=2.47U
+ PD=3.3U
M$261 \$606 \$530 VDD VDD pfet_03v3 L=0.28U W=2U AS=1.3P AD=0.725P PS=5.3U
+ PD=2.725U
M$262 \$531 \$515 \$606 VDD pfet_03v3 L=0.28U W=2U AS=0.725P AD=1.3P PS=2.725U
+ PD=5.3U
M$263 \$432 \$531 VDD VDD pfet_03v3 L=0.28U W=1U AS=0.675P AD=0.65P PS=3.35U
+ PD=3.3U
M$264 \$632 A9 VDD VDD pfet_03v3 L=0.28U W=1U AS=0.65P AD=0.63P PS=3.3U PD=3.26U
M$265 \$634 B9 VDD VDD pfet_03v3 L=0.28U W=1U AS=0.56P AD=0.65P PS=3.12U PD=3.3U
M$266 VDD B9 \$614 VDD pfet_03v3 L=0.28U W=2U AS=1.09P AD=0.725P PS=5.09U
+ PD=2.725U
M$267 \$614 A9 VDD VDD pfet_03v3 L=0.28U W=2U AS=0.725P AD=0.675P PS=2.725U
+ PD=2.675U
M$268 \$615 \$632 \$614 VDD pfet_03v3 L=0.28U W=2U AS=0.675P AD=0.725P
+ PS=2.675U PD=2.725U
M$269 \$614 \$634 \$615 VDD pfet_03v3 L=0.28U W=2U AS=0.725P AD=1.3P PS=2.725U
+ PD=5.3U
M$270 \$657 \$615 VDD VDD pfet_03v3 L=0.28U W=2U AS=1.3P AD=0.725P PS=5.3U
+ PD=2.725U
M$271 \$616 \$636 \$657 VDD pfet_03v3 L=0.28U W=2U AS=0.725P AD=1.3P PS=2.725U
+ PD=5.3U
M$272 \$637 \$615 VDD VDD pfet_03v3 L=0.28U W=1U AS=0.65P AD=0.63P PS=3.3U
+ PD=3.26U
M$273 \$639 \$638 VDD VDD pfet_03v3 L=0.28U W=1U AS=0.56P AD=0.65P PS=3.12U
+ PD=3.3U
M$274 VDD \$638 \$617 VDD pfet_03v3 L=0.28U W=2U AS=1.09P AD=0.725P PS=5.09U
+ PD=2.725U
M$275 \$617 \$615 VDD VDD pfet_03v3 L=0.28U W=2U AS=0.725P AD=0.675P PS=2.725U
+ PD=2.675U
M$276 \$618 \$637 \$617 VDD pfet_03v3 L=0.28U W=2U AS=0.675P AD=0.725P
+ PS=2.675U PD=2.725U
M$277 \$617 \$639 \$618 VDD pfet_03v3 L=0.28U W=2U AS=0.725P AD=1.3P PS=2.725U
+ PD=5.3U
M$278 \$640 S0 VDD VDD pfet_03v3 L=0.28U W=1U AS=0.635P AD=0.65P PS=3.27U
+ PD=3.3U
M$279 \$620 S0 \$619 VDD pfet_03v3 L=0.28U W=2U AS=1.09P AD=0.725P PS=5.09U
+ PD=2.725U
M$280 \$619 \$636 \$620 VDD pfet_03v3 L=0.28U W=2U AS=0.725P AD=0.675P
+ PS=2.725U PD=2.675U
M$281 VDD \$618 \$619 VDD pfet_03v3 L=0.28U W=2U AS=0.675P AD=0.725P PS=2.675U
+ PD=2.725U
M$282 \$619 \$640 VDD VDD pfet_03v3 L=0.28U W=2U AS=0.725P AD=1.3P PS=2.725U
+ PD=5.3U
M$283 \$641 \$620 VDD VDD pfet_03v3 L=0.28U W=1U AS=0.53P AD=0.545P PS=3.06U
+ PD=3.09U
M$284 \$642 S0 VDD VDD pfet_03v3 L=0.28U W=1U AS=0.48P AD=0.64P PS=2.96U
+ PD=3.28U
M$285 \$622 S0 \$621 VDD pfet_03v3 L=0.28U W=2U AS=1.09P AD=0.725P PS=5.09U
+ PD=2.725U
M$286 \$621 \$615 \$622 VDD pfet_03v3 L=0.28U W=2U AS=0.725P AD=0.675P
+ PS=2.725U PD=2.675U
M$287 VDD \$580 \$621 VDD pfet_03v3 L=0.28U W=2U AS=0.675P AD=0.725P PS=2.675U
+ PD=2.725U
M$288 \$621 \$642 VDD VDD pfet_03v3 L=0.28U W=2U AS=0.725P AD=1.3P PS=2.725U
+ PD=5.3U
M$289 \$643 \$622 VDD VDD pfet_03v3 L=0.28U W=1U AS=0.53P AD=0.545P PS=3.06U
+ PD=3.09U
M$290 \$644 S1 VDD VDD pfet_03v3 L=0.28U W=1U AS=0.48P AD=0.64P PS=2.96U
+ PD=3.28U
M$291 \$624 S1 \$623 VDD pfet_03v3 L=0.28U W=2U AS=1.09P AD=0.725P PS=5.09U
+ PD=2.725U
M$292 \$623 \$643 \$624 VDD pfet_03v3 L=0.28U W=2U AS=0.725P AD=0.675P
+ PS=2.725U PD=2.675U
M$293 VDD \$641 \$623 VDD pfet_03v3 L=0.28U W=2U AS=0.675P AD=0.725P PS=2.675U
+ PD=2.725U
M$294 \$623 \$644 VDD VDD pfet_03v3 L=0.28U W=2U AS=0.725P AD=1.3P PS=2.725U
+ PD=5.3U
M$295 Y9 \$624 VDD VDD pfet_03v3 L=0.28U W=1U AS=0.53P AD=0.715P PS=3.06U
+ PD=3.43U
M$296 \$678 \$647 VDD VDD pfet_03v3 L=0.28U W=2U AS=1.3P AD=0.725P PS=5.3U
+ PD=2.725U
M$297 \$625 \$636 \$678 VDD pfet_03v3 L=0.28U W=2U AS=0.725P AD=1.3P PS=2.725U
+ PD=5.3U
M$298 VDD \$626 BP2 VDD pfet_03v3 L=0.28U W=1U AS=0.65P AD=0.65P PS=3.3U PD=3.3U
M$299 VDD \$387 \$626 VDD pfet_03v3 L=0.28U W=1U AS=0.55P AD=0.38P PS=3.1U
+ PD=1.76U
M$300 \$626 \$513 VDD VDD pfet_03v3 L=0.28U W=1U AS=0.38P AD=0.38P PS=1.76U
+ PD=1.76U
M$301 VDD \$615 \$626 VDD pfet_03v3 L=0.28U W=1U AS=0.38P AD=0.38P PS=1.76U
+ PD=1.76U
M$302 \$626 \$736 VDD VDD pfet_03v3 L=0.28U W=1U AS=0.38P AD=0.65P PS=1.76U
+ PD=3.3U
M$303 \$648 BP2 VDD VDD pfet_03v3 L=0.28U W=1U AS=0.635P AD=0.65P PS=3.27U
+ PD=3.3U
M$304 \$628 BP2 \$627 VDD pfet_03v3 L=0.28U W=2U AS=1.09P AD=0.725P PS=5.09U
+ PD=2.725U
M$305 \$627 \$686 \$628 VDD pfet_03v3 L=0.28U W=2U AS=0.725P AD=0.675P
+ PS=2.725U PD=2.675U
M$306 VDD \$442 \$627 VDD pfet_03v3 L=0.28U W=2U AS=0.675P AD=0.725P PS=2.675U
+ PD=2.725U
M$307 \$627 \$648 VDD VDD pfet_03v3 L=0.28U W=2U AS=0.725P AD=1.3P PS=2.725U
+ PD=5.3U
M$308 \$272 \$628 VDD VDD pfet_03v3 L=0.28U W=1U AS=0.53P AD=0.545P PS=3.06U
+ PD=3.09U
M$309 VDD BP3 \$581 VDD pfet_03v3 L=0.28U W=1U AS=0.65P AD=0.38P PS=3.3U
+ PD=1.76U
M$310 \$581 BP2 VDD VDD pfet_03v3 L=0.28U W=1U AS=0.38P AD=0.38P PS=1.76U
+ PD=1.76U
M$311 VDD BP1 \$581 VDD pfet_03v3 L=0.28U W=1U AS=0.38P AD=0.38P PS=1.76U
+ PD=1.76U
M$312 \$581 BP0 VDD VDD pfet_03v3 L=0.28U W=1U AS=0.38P AD=0.55P PS=1.76U
+ PD=3.1U
M$313 Z \$581 VDD VDD pfet_03v3 L=0.28U W=1U AS=0.65P AD=0.65P PS=3.3U PD=3.3U
M$314 \$734 A8 VDD VDD pfet_03v3 L=0.28U W=1U AS=0.65P AD=0.63P PS=3.3U PD=3.26U
M$315 \$735 B8 VDD VDD pfet_03v3 L=0.28U W=1U AS=0.56P AD=0.65P PS=3.12U PD=3.3U
M$316 VDD B8 \$806 VDD pfet_03v3 L=0.28U W=2U AS=1.09P AD=0.725P PS=5.09U
+ PD=2.725U
M$317 \$806 A8 VDD VDD pfet_03v3 L=0.28U W=2U AS=0.725P AD=0.675P PS=2.725U
+ PD=2.675U
M$318 \$736 \$734 \$806 VDD pfet_03v3 L=0.28U W=2U AS=0.675P AD=0.725P
+ PS=2.675U PD=2.725U
M$319 \$806 \$735 \$736 VDD pfet_03v3 L=0.28U W=2U AS=0.725P AD=1.3P PS=2.725U
+ PD=5.3U
M$320 \$635 B9 VDD VDD pfet_03v3 L=0.28U W=1U AS=0.65P AD=0.42P PS=3.3U PD=1.84U
M$321 VDD A9 \$635 VDD pfet_03v3 L=0.28U W=1U AS=0.42P AD=0.735P PS=1.84U
+ PD=2.47U
M$322 \$636 \$635 VDD VDD pfet_03v3 L=0.28U W=1U AS=0.735P AD=0.65P PS=2.47U
+ PD=3.3U
M$323 \$737 B8 VDD VDD pfet_03v3 L=0.28U W=1U AS=0.65P AD=0.42P PS=3.3U PD=1.84U
M$324 VDD A8 \$737 VDD pfet_03v3 L=0.28U W=1U AS=0.42P AD=0.735P PS=1.84U
+ PD=2.47U
M$325 \$738 \$737 VDD VDD pfet_03v3 L=0.28U W=1U AS=0.735P AD=0.65P PS=2.47U
+ PD=3.3U
M$326 \$839 \$736 VDD VDD pfet_03v3 L=0.28U W=2U AS=1.3P AD=0.725P PS=5.3U
+ PD=2.725U
M$327 \$739 \$738 \$839 VDD pfet_03v3 L=0.28U W=2U AS=0.725P AD=1.3P PS=2.725U
+ PD=5.3U
M$328 \$580 \$616 VDD VDD pfet_03v3 L=0.28U W=1U AS=0.675P AD=0.65P PS=3.35U
+ PD=3.3U
M$329 \$740 \$739 VDD VDD pfet_03v3 L=0.28U W=1U AS=0.675P AD=0.65P PS=3.35U
+ PD=3.3U
M$330 \$741 \$736 VDD VDD pfet_03v3 L=0.28U W=1U AS=0.65P AD=0.63P PS=3.3U
+ PD=3.26U
M$331 \$742 \$686 VDD VDD pfet_03v3 L=0.28U W=1U AS=0.56P AD=0.65P PS=3.12U
+ PD=3.3U
M$332 VDD \$686 \$807 VDD pfet_03v3 L=0.28U W=2U AS=1.09P AD=0.725P PS=5.09U
+ PD=2.725U
M$333 \$807 \$736 VDD VDD pfet_03v3 L=0.28U W=2U AS=0.725P AD=0.675P PS=2.725U
+ PD=2.675U
M$334 \$743 \$741 \$807 VDD pfet_03v3 L=0.28U W=2U AS=0.675P AD=0.725P
+ PS=2.675U PD=2.725U
M$335 \$807 \$742 \$743 VDD pfet_03v3 L=0.28U W=2U AS=0.725P AD=1.3P PS=2.725U
+ PD=5.3U
M$336 \$744 S0 VDD VDD pfet_03v3 L=0.28U W=1U AS=0.635P AD=0.65P PS=3.27U
+ PD=3.3U
M$337 \$745 S0 \$808 VDD pfet_03v3 L=0.28U W=2U AS=1.09P AD=0.725P PS=5.09U
+ PD=2.725U
M$338 \$808 \$738 \$745 VDD pfet_03v3 L=0.28U W=2U AS=0.725P AD=0.675P
+ PS=2.725U PD=2.675U
M$339 VDD \$743 \$808 VDD pfet_03v3 L=0.28U W=2U AS=0.675P AD=0.725P PS=2.675U
+ PD=2.725U
M$340 \$808 \$744 VDD VDD pfet_03v3 L=0.28U W=2U AS=0.725P AD=1.3P PS=2.725U
+ PD=5.3U
M$341 \$687 \$745 VDD VDD pfet_03v3 L=0.28U W=1U AS=0.53P AD=0.545P PS=3.06U
+ PD=3.09U